
     RDKit          3D

 22 24  0  0  0  0  0  0  0  0999 V2000
    9.2260    1.0170   21.0990 O   0  0  0  0  0  0  0  0  0  0  0  0
    8.7410   -0.0590   21.4400 C   0  0  0  0  0  0  0  0  0  0  0  0
    9.3260   -0.8670   22.5830 C   0  0  0  0  0  0  0  0  0  0  0  0
   10.7730   -0.5070   22.8220 C   0  0  0  0  0  0  0  0  0  0  0  0
   11.7780   -1.0890   22.0550 C   0  0  0  0  0  0  0  0  0  0  0  0
   13.0800   -0.7030   22.2660 C   0  0  0  0  0  0  0  0  0  0  0  0
   14.0450   -1.2230   21.4620 F   0  0  0  0  0  0  0  0  0  0  0  0
   13.4560    0.2140   23.2180 C   0  0  0  0  0  0  0  0  0  0  0  0
   11.1140    0.4250   23.7950 C   0  0  0  0  0  0  0  0  0  0  0  0
   12.4380    0.7500   23.9660 C   0  0  0  0  0  0  0  0  0  0  0  0
   12.7560    1.6650   24.9210 F   0  0  0  0  0  0  0  0  0  0  0  0
    7.6540   -0.6110   20.8590 N   0  0  0  0  0  0  0  0  0  0  0  0
    6.8460   -0.0680   19.8370 C   0  0  0  0  0  0  0  0  0  0  0  0
    5.6950    0.6910   20.2160 C   0  0  0  0  0  0  0  0  0  0  0  0
    5.2600    0.8510   21.5590 C   0  0  0  0  0  0  0  0  0  0  0  0
    4.1700    1.6170   21.8570 C   0  0  0  0  0  0  0  0  0  0  0  0
    3.4650    2.2650   20.8530 C   0  0  0  0  0  0  0  0  0  0  0  0
    3.8340    2.1340   19.5440 C   0  0  0  0  0  0  0  0  0  0  0  0
    4.9530    1.3400   19.1880 C   0  0  0  0  0  0  0  0  0  0  0  0
    5.3950    1.1760   17.8520 C   0  0  0  0  0  0  0  0  0  0  0  0
    6.4610    0.4720   17.5020 N   0  0  0  0  0  0  0  0  0  0  0  0
    7.1520   -0.1330   18.4780 C   0  0  0  0  0  0  0  0  0  0  0  0
  2  1  2  0
  3  2  1  0
  4  3  1  0
  5  4  2  0
  6  5  1  0
  7  6  1  0
  8  6  2  0
  9  4  1  0
 10  9  2  0
 10  8  1  0
 11 10  1  0
 12  2  1  0
 13 12  1  0
 14 13  1  0
 15 14  2  0
 16 15  1  0
 17 16  2  0
 18 17  1  0
 19 18  2  0
 19 14  1  0
 20 19  1  0
 21 20  2  0
 22 21  1  0
 22 13  2  0
M  END
> <BADATOMS>
17;16;15
> <BADCOMMENTS>
Weak Density;Weak Density;Weak Density
> <BADATOMNAMES>
[HET]1.C18;[HET]1.C17;[HET]1.C16