
     RDKit          3D

 23 26  0  0  0  0  0  0  0  0999 V2000
    9.1850    1.2950   21.1780 O   0  0  0  0  0  0  0  0  0  0  0  0
    8.6840    0.2800   21.6290 C   0  0  0  0  0  0  0  0  0  0  0  0
    9.1470   -0.5060   22.8490 C   0  0  2  0  0  0  0  0  0  0  0  0
   10.6490   -0.4660   23.0950 C   0  0  0  0  0  0  0  0  0  0  0  0
   11.1530    0.0880   24.2640 C   0  0  0  0  0  0  0  0  0  0  0  0
   12.5130    0.0570   24.5340 C   0  0  0  0  0  0  0  0  0  0  0  0
   13.3920   -0.5210   23.6330 C   0  0  0  0  0  0  0  0  0  0  0  0
   11.5330   -1.0370   22.1850 C   0  0  0  0  0  0  0  0  0  0  0  0
   12.8880   -1.0500   22.4640 C   0  0  0  0  0  0  0  0  0  0  0  0
   13.9900   -1.7040   21.2830 Cl  0  0  0  0  0  0  0  0  0  0  0  0
    7.5820   -0.3560   21.1250 N   0  0  0  0  0  0  0  0  0  0  0  0
    7.2500   -1.5970   21.8500 C   0  0  0  0  0  0  0  0  0  0  0  0
    8.5440   -1.9130   22.5880 C   0  0  0  0  0  0  0  0  0  0  0  0
    6.7970    0.1080   20.0150 C   0  0  0  0  0  0  0  0  0  0  0  0
    5.6550    0.9470   20.2060 C   0  0  0  0  0  0  0  0  0  0  0  0
    5.1580    1.3390   21.4780 C   0  0  0  0  0  0  0  0  0  0  0  0
    4.0700    2.1550   21.5880 C   0  0  0  0  0  0  0  0  0  0  0  0
    3.4200    2.6260   20.4540 C   0  0  0  0  0  0  0  0  0  0  0  0
    3.8550    2.2750   19.2080 C   0  0  0  0  0  0  0  0  0  0  0  0
    4.9800    1.4300   19.0470 C   0  0  0  0  0  0  0  0  0  0  0  0
    5.4830    1.0420   17.7780 C   0  0  0  0  0  0  0  0  0  0  0  0
    6.5390    0.2600   17.6050 N   0  0  0  0  0  0  0  0  0  0  0  0
    7.1610   -0.1880   18.7040 C   0  0  0  0  0  0  0  0  0  0  0  0
  2  1  2  0
  3  2  1  0
  3  4  1  6
  5  4  2  0
  6  5  1  0
  7  6  2  0
  8  4  1  0
  9  8  2  0
  9  7  1  0
 10  9  1  0
 11  2  1  0
 12 11  1  0
 13 12  1  0
 13  3  1  0
 14 11  1  0
 15 14  1  0
 16 15  2  0
 17 16  1  0
 18 17  2  0
 19 18  1  0
 20 19  2  0
 20 15  1  0
 21 20  1  0
 22 21  2  0
 23 22  1  0
 23 14  2  0
M  END
