
     RDKit          3D

 16 18  0  0  0  0  0  0  0  0999 V2000
   21.8210   18.4360    6.0910 C   0  0  0  0  0  0  0  0  0  0  0  0
   21.2970   19.6610    5.7230 C   0  0  0  0  0  0  0  0  0  0  0  0
   21.8550   15.9160    5.9830 C   0  0  0  0  0  0  0  0  0  0  0  0
   20.4560   15.3530    7.8970 C   0  0  2  0  0  0  0  0  0  0  0  0
   21.6530   15.0220    8.7450 C   0  0  0  0  0  0  0  0  0  0  0  0
   22.2630   13.8050    8.0390 C   0  0  0  0  0  0  0  0  0  0  0  0
   21.4400   13.6630    6.7620 C   0  0  1  0  0  0  0  0  0  0  0  0
   20.2730   12.6990    6.9110 C   0  0  0  0  0  0  0  0  0  0  0  0
   19.3770   13.0740    8.0770 C   0  0  2  0  0  0  0  0  0  0  0  0
   19.2130   14.5670    8.2890 C   0  0  0  0  0  0  0  0  0  0  0  0
   19.8340   12.4690    9.2720 O   0  0  0  0  0  0  0  0  0  0  0  0
   20.8570   14.9720    6.5430 N   0  0  0  0  0  0  0  0  0  0  0  0
   21.2950   17.2650    5.5730 C   0  0  0  0  0  0  0  0  0  0  0  0
   20.2430   17.3560    4.6730 C   0  0  0  0  0  0  0  0  0  0  0  0
   19.7390   18.5830    4.2810 C   0  0  0  0  0  0  0  0  0  0  0  0
   20.2630   19.7310    4.8190 C   0  0  0  0  0  0  0  0  0  0  0  0
  2  1  1  0
  4  5  1  1
  6  5  1  0
  7  6  1  1
  8  7  1  0
  9  8  1  0
 10  9  1  0
 10  4  1  0
  9 11  1  1
 12  7  1  0
 12  4  1  0
 12  3  1  0
 13  3  1  0
 13  1  1  0
 14 13  1  0
 15 14  1  0
 16 15  1  0
 16  2  1  0
M  END
