
     RDKit          3D

 21 23  0  0  0  0  0  0  0  0999 V2000
    8.8900    0.8130   21.3730 O   0  0  0  0  0  0  0  0  0  0  0  0
    8.4250   -0.3100   21.5860 C   0  0  0  0  0  0  0  0  0  0  0  0
    9.1110   -1.3040   22.5050 C   0  0  0  0  0  0  0  0  0  0  0  0
   10.5150   -0.9060   22.9090 C   0  0  0  0  0  0  0  0  0  0  0  0
   10.7320   -0.0410   23.9740 C   0  0  0  0  0  0  0  0  0  0  0  0
   11.9990    0.4600   24.2370 C   0  0  0  0  0  0  0  0  0  0  0  0
   13.0710    0.1020   23.4370 C   0  0  0  0  0  0  0  0  0  0  0  0
   11.6050   -1.3160   22.1470 C   0  0  0  0  0  0  0  0  0  0  0  0
   12.8590   -0.7970   22.4120 C   0  0  0  0  0  0  0  0  0  0  0  0
   14.2020   -1.2840   21.4140 Cl  0  0  0  0  0  0  0  0  0  0  0  0
    7.2910   -0.7740   21.0070 N   0  0  0  0  0  0  0  0  0  0  0  0
    6.5310   -0.1920   19.9700 C   0  0  0  0  0  0  0  0  0  0  0  0
    5.3980    0.6190   20.3150 C   0  0  0  0  0  0  0  0  0  0  0  0
    4.9050    0.7750   21.6300 C   0  0  0  0  0  0  0  0  0  0  0  0
    3.8350    1.5890   21.8610 C   0  0  0  0  0  0  0  0  0  0  0  0
    3.2530    2.2570   20.7820 C   0  0  0  0  0  0  0  0  0  0  0  0
    3.6610    2.1490   19.5250 N   0  0  0  0  0  0  0  0  0  0  0  0
    4.7320    1.3230   19.2770 C   0  0  0  0  0  0  0  0  0  0  0  0
    5.2440    1.1240   17.9640 C   0  0  0  0  0  0  0  0  0  0  0  0
    6.2730    0.3610   17.6340 N   0  0  0  0  0  0  0  0  0  0  0  0
    6.8980   -0.2810   18.6270 C   0  0  0  0  0  0  0  0  0  0  0  0
  2  1  2  0
  3  2  1  0
  4  3  1  0
  5  4  2  0
  6  5  1  0
  7  6  2  0
  8  4  1  0
  9  8  2  0
  9  7  1  0
 10  9  1  0
 11  2  1  0
 12 11  1  0
 13 12  1  0
 14 13  2  0
 15 14  1  0
 16 15  2  0
 17 16  1  0
 18 17  2  0
 18 13  1  0
 19 18  1  0
 20 19  2  0
 21 20  1  0
 21 12  2  0
M  END
