
     RDKit          3D

 30 34  0  0  0  0  0  0  0  0999 V2000
    7.1200    2.4200   25.4550 O   0  0  0  0  0  0  0  0  0  0  0  0
    6.8760    1.0210   25.2550 S   0  0  2  0  0  0  0  0  0  0  0  0
    5.6330    0.6030   24.6760 O   0  0  0  0  0  0  0  0  0  0  0  0
    7.0150    0.2190   26.8430 C   0  0  2  0  0  0  0  0  0  0  0  0
    6.0340   -0.8560   27.1970 C   0  0  0  0  0  0  0  0  0  0  0  0
    5.9770    0.4570   27.8960 C   0  0  0  0  0  0  0  0  0  0  0  0
    8.1330    0.3660   24.4260 N   0  0  0  0  0  0  0  0  0  0  0  0
    9.4870    0.6980   24.8940 C   0  0  0  0  0  0  0  0  0  0  0  0
    7.9750   -1.0020   23.9010 C   0  0  0  0  0  0  0  0  0  0  0  0
    8.8100   -1.1010   22.6240 C   0  0  2  0  0  0  0  0  0  0  0  0
   10.2490   -0.7210   22.9090 C   0  0  0  0  0  0  0  0  0  0  0  0
   10.5490    0.1770   23.9460 C   0  0  2  0  0  0  0  0  0  0  0  0
   11.8770    0.5500   24.1560 C   0  0  0  0  0  0  0  0  0  0  0  0
   12.8980    0.0260   23.3850 C   0  0  0  0  0  0  0  0  0  0  0  0
   11.2850   -1.2590   22.1440 C   0  0  0  0  0  0  0  0  0  0  0  0
   12.5890   -0.8790   22.3950 C   0  0  0  0  0  0  0  0  0  0  0  0
   13.8690   -1.5510   21.4190 Cl  0  0  0  0  0  0  0  0  0  0  0  0
    8.2780   -0.1750   21.5270 C   0  0  0  0  0  0  0  0  0  0  0  0
    8.8730    0.8480   21.1870 O   0  0  0  0  0  0  0  0  0  0  0  0
    7.1220   -0.5900   20.9530 N   0  0  0  0  0  0  0  0  0  0  0  0
    6.4300    0.0040   19.8770 C   0  0  1  0  0  0  0  0  0  0  0  0
    5.3260    0.8720   20.1580 C   0  0  0  0  0  0  0  0  0  0  0  0
    4.8130    1.1010   21.4620 C   0  0  0  0  0  0  0  0  0  0  0  0
    3.7670    1.9560   21.6650 C   0  0  0  0  0  0  0  0  0  0  0  0
    3.1820    2.6240   20.5980 C   0  0  0  0  0  0  0  0  0  0  0  0
    3.6360    2.4330   19.3240 C   0  0  0  0  0  0  0  0  0  0  0  0
    4.7140    1.5510   19.0670 C   0  0  0  0  0  0  0  0  0  0  0  0
    5.2220    1.3060   17.7720 C   0  0  0  0  0  0  0  0  0  0  0  0
    6.2360    0.4940   17.5100 N   0  0  0  0  0  0  0  0  0  0  0  0
    6.8130   -0.1320   18.5430 C   0  0  0  0  0  0  0  0  0  0  0  0
  2  1  1  1
  3  2  1  0
  4  2  1  0
  4  5  1  6
  6  5  1  0
  6  4  1  0
  7  2  1  0
  8  7  1  0
  9  7  1  0
 10  9  1  0
 11 10  1  0
 12 11  1  0
 12  8  1  1
 13 12  1  0
 14 13  1  0
 15 11  1  0
 16 15  1  0
 16 14  1  0
 17 16  1  0
 10 18  1  6
 19 18  1  0
 20 18  1  0
 21 20  1  1
 22 21  1  0
 23 22  1  0
 24 23  1  0
 25 24  1  0
 26 25  1  0
 27 26  1  0
 27 22  1  0
 28 27  1  0
 29 28  1  0
 30 29  1  0
 30 21  1  0
M  END
$$$$
