
     RDKit          3D

 26 29  0  0  0  0  0  0  0  0999 V2000
    9.7000    1.3280   20.9520 O   0  0  0  0  0  0  0  0  0  0  0  0
    9.1930    0.4040   21.5710 C   0  0  0  0  0  0  0  0  0  0  0  0
    9.8470   -0.0870   22.8810 C   0  0  1  0  0  0  0  0  0  0  0  0
   11.3560   -0.0090   22.8320 C   0  0  0  0  0  0  0  0  0  0  0  0
   12.0800   -0.6770   21.8500 C   0  0  0  0  0  0  0  0  0  0  0  0
   13.4540   -0.5610   21.8240 C   0  0  0  0  0  0  0  0  0  0  0  0
   14.3420   -1.3810   20.5740 Cl  0  0  0  0  0  0  0  0  0  0  0  0
   14.1400    0.1990   22.7500 C   0  0  0  0  0  0  0  0  0  0  0  0
   13.4350    0.8650   23.7350 C   0  0  0  0  0  0  0  0  0  0  0  0
   12.0520    0.7670   23.7610 C   0  0  0  0  0  0  0  0  0  0  0  0
   11.4190    1.5290   24.7100 O   0  0  0  0  0  0  0  0  0  0  0  0
   10.1420    1.0200   25.1150 C   0  0  0  0  0  0  0  0  0  0  0  0
    9.2280    0.8560   23.9220 C   0  0  0  0  0  0  0  0  0  0  0  0
    9.3520   -1.3940   23.1910 O   0  0  0  0  0  0  0  0  0  0  0  0
    9.6420   -2.4460   22.2590 C   0  0  0  0  0  0  0  0  0  0  0  0
    8.0190   -0.1730   21.2380 N   0  0  0  0  0  0  0  0  0  0  0  0
    7.2130    0.1570   20.1400 C   0  0  0  0  0  0  0  0  0  0  0  0
    5.9780    0.8310   20.3860 C   0  0  0  0  0  0  0  0  0  0  0  0
    5.4930    1.1400   21.6840 C   0  0  0  0  0  0  0  0  0  0  0  0
    4.3050    1.7940   21.8500 C   0  0  0  0  0  0  0  0  0  0  0  0
    3.5480    2.1810   20.7480 C   0  0  0  0  0  0  0  0  0  0  0  0
    3.9760    1.9070   19.4800 C   0  0  0  0  0  0  0  0  0  0  0  0
    5.1950    1.2180   19.2630 C   0  0  0  0  0  0  0  0  0  0  0  0
    5.6910    0.9060   17.9750 C   0  0  0  0  0  0  0  0  0  0  0  0
    6.8370    0.2800   17.7480 N   0  0  0  0  0  0  0  0  0  0  0  0
    7.5640   -0.0880   18.8120 C   0  0  0  0  0  0  0  0  0  0  0  0
  2  1  2  0
  3  2  1  0
  4  3  1  0
  5  4  2  0
  6  5  1  0
  7  6  1  0
  8  6  2  0
  9  8  1  0
 10  9  2  0
 10  4  1  0
 11 10  1  0
 12 11  1  0
 13 12  1  0
 13  3  1  0
  3 14  1  1
 15 14  1  0
 16  2  1  0
 17 16  1  0
 18 17  1  0
 19 18  2  0
 20 19  1  0
 21 20  2  0
 22 21  1  0
 23 22  2  0
 23 18  1  0
 24 23  1  0
 25 24  2  0
 26 25  1  0
 26 17  2  0
M  END
