
     RDKit          3D

 34 38  0  0  0  0  0  0  0  0999 V2000
   12.8460    7.1210   22.1940 O   0  0  0  0  0  0  0  0  0  0  0  0
   11.9340    6.5220   22.7430 C   0  0  0  0  0  0  0  0  0  0  0  0
   10.7950    7.2580   23.3680 C   0  0  0  0  0  0  0  0  0  0  0  0
    9.5780    7.1810   22.7430 O   0  0  0  0  0  0  0  0  0  0  0  0
    8.7100    7.9420   23.5030 C   0  0  0  0  0  0  0  0  0  0  0  0
    9.3410    8.4660   24.5490 C   0  0  0  0  0  0  0  0  0  0  0  0
   10.6970    8.0280   24.4730 C   0  0  0  0  0  0  0  0  0  0  0  0
   11.9270    5.1850   22.8500 N   0  0  0  0  0  0  0  0  0  0  0  0
   10.9040    4.4380   23.5980 C   0  0  0  0  0  0  0  0  0  0  0  0
   11.5540    3.5080   24.6200 C   0  0  0  0  0  0  0  0  0  0  0  0
   12.9430    4.3340   22.2170 C   0  0  0  0  0  0  0  0  0  0  0  0
   13.5750    3.4220   23.2560 C   0  0  0  0  0  0  0  0  0  0  0  0
   12.5480    2.6520   23.9680 N   0  0  0  0  0  0  0  0  0  0  0  0
   12.2360    1.3840   23.4920 C   0  0  0  0  0  0  0  0  0  0  0  0
   13.2540    0.5200   23.0930 C   0  0  0  0  0  0  0  0  0  0  0  0
   12.9220   -0.6830   22.5190 C   0  0  0  0  0  0  0  0  0  0  0  0
   14.1970   -1.7210   21.9510 Cl  0  0  0  0  0  0  0  0  0  0  0  0
   10.9000    0.9920   23.3350 C   0  0  0  0  0  0  0  0  0  0  0  0
   10.5860   -0.2310   22.7580 C   0  0  0  0  0  0  0  0  0  0  0  0
   11.6120   -1.0750   22.3510 C   0  0  0  0  0  0  0  0  0  0  0  0
    9.1420   -0.6250   22.5440 C   0  0  0  0  0  0  0  0  0  0  0  0
    8.5060    0.1410   21.4000 C   0  0  0  0  0  0  0  0  0  0  0  0
    8.7990    1.3050   21.1510 O   0  0  0  0  0  0  0  0  0  0  0  0
    7.7050   -0.5900   20.6140 N   0  0  0  0  0  0  0  0  0  0  0  0
    6.6600   -0.2040   19.7620 C   0  0  0  0  0  0  0  0  0  0  0  0
    5.6560    0.7280   20.1760 C   0  0  0  0  0  0  0  0  0  0  0  0
    5.2370    0.8880   21.5240 C   0  0  0  0  0  0  0  0  0  0  0  0
    4.1770    1.6880   21.8410 C   0  0  0  0  0  0  0  0  0  0  0  0
    3.4890    2.3750   20.8540 C   0  0  0  0  0  0  0  0  0  0  0  0
    3.8510    2.2580   19.5430 C   0  0  0  0  0  0  0  0  0  0  0  0
    4.9370    1.4310   19.1670 C   0  0  0  0  0  0  0  0  0  0  0  0
    5.2880    1.1900   17.8190 C   0  0  0  0  0  0  0  0  0  0  0  0
    6.2090    0.3250   17.4370 N   0  0  0  0  0  0  0  0  0  0  0  0
    6.8390   -0.3690   18.3920 C   0  0  0  0  0  0  0  0  0  0  0  0
  2  1  2  0
  3  2  1  0
  4  3  1  0
  5  4  1  0
  6  5  2  0
  7  6  1  0
  7  3  2  0
  8  2  1  0
  9  8  1  0
 10  9  1  0
 11  8  1  0
 12 11  1  0
 13 12  1  0
 13 10  1  0
 14 13  1  0
 15 14  2  0
 16 15  1  0
 17 16  1  0
 18 14  1  0
 19 18  2  0
 20 19  1  0
 20 16  2  0
 21 19  1  0
 22 21  1  0
 23 22  2  0
 24 22  1  0
 25 24  1  0
 26 25  1  0
 27 26  2  0
 28 27  1  0
 29 28  2  0
 30 29  1  0
 31 30  2  0
 31 26  1  0
 32 31  1  0
 33 32  2  0
 34 33  1  0
 34 25  2  0
M  END
