
     RDKit          3D

 25 28  0  0  0  0  0  0  0  0999 V2000
   13.8500   -1.6330   21.5380 Cl  0  0  0  0  0  0  0  0  0  0  0  0
   12.5250   -0.9110   22.3890 C   0  0  0  0  0  0  0  0  0  0  0  0
   12.7630    0.0300   23.3690 C   0  0  0  0  0  0  0  0  0  0  0  0
   14.0360    0.4030   23.6260 F   0  0  0  0  0  0  0  0  0  0  0  0
   11.2280   -1.2520   22.0680 C   0  0  0  0  0  0  0  0  0  0  0  0
   10.1570   -0.6640   22.7370 C   0  0  0  0  0  0  0  0  0  0  0  0
   10.4400    0.2700   23.7440 C   0  0  0  0  0  0  0  0  0  0  0  0
   11.7400    0.6310   24.0550 C   0  0  0  0  0  0  0  0  0  0  0  0
    8.7250   -1.0280   22.4100 C   0  0  1  0  0  0  0  0  0  0  0  0
    7.9110   -0.9140   23.7080 C   0  0  0  0  0  0  0  0  0  0  0  0
    8.0860    0.4590   24.3180 C   0  0  0  0  0  0  0  0  0  0  0  0
    9.4700    0.8550   24.5240 O   0  0  0  0  0  0  0  0  0  0  0  0
    8.2430   -0.0750   21.3130 C   0  0  0  0  0  0  0  0  0  0  0  0
    8.5450    1.1190   21.3020 O   0  0  0  0  0  0  0  0  0  0  0  0
    7.5660   -0.6710   20.3070 N   0  0  0  0  0  0  0  0  0  0  0  0
    6.5810   -0.1570   19.4340 C   0  0  0  0  0  0  0  0  0  0  0  0
    5.6260    0.8200   19.8730 C   0  0  0  0  0  0  0  0  0  0  0  0
    5.1930    0.9520   21.2190 C   0  0  0  0  0  0  0  0  0  0  0  0
    4.1550    1.7790   21.5500 C   0  0  0  0  0  0  0  0  0  0  0  0
    3.5060    2.5240   20.5780 C   0  0  0  0  0  0  0  0  0  0  0  0
    3.8930    2.4480   19.2720 C   0  0  0  0  0  0  0  0  0  0  0  0
    4.9520    1.5920   18.8810 C   0  0  0  0  0  0  0  0  0  0  0  0
    5.2880    1.3620   17.5290 C   0  0  0  0  0  0  0  0  0  0  0  0
    6.1460    0.4450   17.1210 N   0  0  0  0  0  0  0  0  0  0  0  0
    6.7420   -0.3000   18.0580 C   0  0  0  0  0  0  0  0  0  0  0  0
  2  1  1  0
  3  2  2  0
  4  3  1  0
  5  2  1  0
  6  5  2  0
  7  6  1  0
  8  7  2  0
  8  3  1  0
  9  6  1  0
 10  9  1  0
 11 10  1  0
 12 11  1  0
 12  7  1  0
  9 13  1  6
 14 13  2  0
 15 13  1  0
 16 15  1  0
 17 16  1  0
 18 17  2  0
 19 18  1  0
 20 19  2  0
 21 20  1  0
 22 21  2  0
 22 17  1  0
 23 22  1  0
 24 23  2  0
 25 24  1  0
 25 16  2  0
M  END
> <BADATOMS>
23;10;9
> <BADCOMMENTS>
Weak Density;Weak Density;Weak Density
> <BADATOMNAMES>
[HET]1.N24;[HET]1.C11;[HET]1.C10