
     RDKit          3D

 32 35  0  0  0  0  0  0  0  0999 V2000
    9.0310    1.0530   21.0660 O   0  0  0  0  0  0  0  0  0  0  0  0
    8.4000    0.1610   21.6160 C   0  0  0  0  0  0  0  0  0  0  0  0
    7.2110   -0.2820   21.1500 N   0  0  0  0  0  0  0  0  0  0  0  0
    6.5280    0.1690   20.0030 C   0  0  0  0  0  0  0  0  0  0  0  0
    5.3510    0.9580   20.1840 C   0  0  0  0  0  0  0  0  0  0  0  0
    4.8100    1.2880   21.4550 C   0  0  0  0  0  0  0  0  0  0  0  0
    3.6840    2.0530   21.5610 C   0  0  0  0  0  0  0  0  0  0  0  0
    3.0410    2.5280   20.4240 C   0  0  0  0  0  0  0  0  0  0  0  0
    3.5180    2.2320   19.1790 C   0  0  0  0  0  0  0  0  0  0  0  0
    4.6830    1.4380   19.0230 C   0  0  0  0  0  0  0  0  0  0  0  0
    5.2280    1.0980   17.7610 C   0  0  0  0  0  0  0  0  0  0  0  0
    6.3220    0.3650   17.5940 N   0  0  0  0  0  0  0  0  0  0  0  0
    6.9410   -0.0830   18.6940 C   0  0  0  0  0  0  0  0  0  0  0  0
    8.9170   -0.4970   22.9180 C   0  0  1  0  0  0  0  0  0  0  0  0
   10.4180   -0.1990   23.0330 C   0  0  1  0  0  0  0  0  0  0  0  0
   11.3440   -0.9010   22.2610 C   0  0  0  0  0  0  0  0  0  0  0  0
   12.6710   -0.5120   22.2750 C   0  0  0  0  0  0  0  0  0  0  0  0
   13.8110   -1.3660   21.2730 Cl  0  0  0  0  0  0  0  0  0  0  0  0
   13.1150    0.5450   23.0380 C   0  0  0  0  0  0  0  0  0  0  0  0
   12.2180    1.2230   23.8420 C   0  0  0  0  0  0  0  0  0  0  0  0
   10.8860    0.8420   23.8450 C   0  0  2  0  0  0  0  0  0  0  0  0
   10.0830    1.5070   24.7380 O   0  0  0  0  0  0  0  0  0  0  0  0
    8.7020    1.5900   24.3470 C   0  0  0  0  0  0  0  0  0  0  0  0
    8.1290    0.2230   24.0380 C   0  0  0  0  0  0  0  0  0  0  0  0
    8.6280   -2.0260   22.8860 C   0  0  0  0  0  0  0  0  0  0  0  0
    8.7910   -2.7250   24.1510 N   0  0  0  0  0  0  0  0  0  0  0  0
    7.7570   -3.1030   24.9070 C   0  0  0  0  0  0  0  0  0  0  0  0
    6.6090   -2.7030   24.7240 O   0  0  0  0  0  0  0  0  0  0  0  0
    8.0610   -4.1250   25.9900 C   0  0  0  0  0  0  0  0  0  0  0  0
    9.1100   -3.7460   26.9430 N   0  0  0  0  0  0  0  0  0  0  0  0
    9.4850   -4.8950   27.7650 C   0  0  0  0  0  0  0  0  0  0  0  0
    8.6630   -2.6470   27.7990 C   0  0  0  0  0  0  0  0  0  0  0  0
  2  1  1  0
  3  2  1  0
  4  3  1  0
  5  4  1  0
  6  5  1  0
  7  6  1  0
  8  7  1  0
  9  8  1  0
 10  9  1  0
 10  5  1  0
 11 10  1  0
 12 11  1  0
 13 12  1  0
 13  4  1  0
 14  2  1  0
 15 14  1  0
 15 16  1  6
 17 16  1  0
 18 17  1  0
 19 17  1  0
 20 19  1  0
 21 15  1  0
 21 20  1  1
 22 21  1  0
 23 22  1  0
 24 23  1  0
 24 14  1  0
 14 25  1  6
 26 25  1  0
 27 26  1  0
 28 27  1  0
 29 27  1  0
 30 29  1  0
 31 30  1  0
 32 30  1  0
M  END
$$$$
