
     RDKit          3D

 20 21  0  0  0  0  0  0  0  0999 V2000
    5.6520   -5.1890   24.4230 N   0  0  0  0  0  0  0  0  0  0  0  0
    2.4090   -4.1510   25.7420 C   0  0  0  0  0  0  0  0  0  0  0  0
    4.3740   -6.3030   26.2040 O   0  0  0  0  0  0  0  0  0  0  0  0
    1.4180   -3.1980   25.7170 C   0  0  0  0  0  0  0  0  0  0  0  0
    6.6720   -4.4780   20.5270 C   0  0  0  0  0  0  0  0  0  0  0  0
    7.8240   -3.5360   20.2600 C   0  0  0  0  0  0  0  0  0  0  0  0
    1.7780   -1.8710   25.8410 C   0  0  0  0  0  0  0  0  0  0  0  0
    3.0970   -1.4890   25.9910 C   0  0  0  0  0  0  0  0  0  0  0  0
    4.0690   -2.4610   26.0120 C   0  0  0  0  0  0  0  0  0  0  0  0
    3.7490   -3.8080   25.8850 C   0  0  0  0  0  0  0  0  0  0  0  0
    4.7090   -5.3190   23.3010 C   0  0  0  0  0  0  0  0  0  0  0  0
    5.4460   -5.8990   22.1230 C   0  0  0  0  0  0  0  0  0  0  0  0
    7.5050   -4.8750   22.8810 C   0  0  0  0  0  0  0  0  0  0  0  0
    6.7890   -4.3160   24.0840 C   0  0  0  0  0  0  0  0  0  0  0  0
    2.0480   -5.4490   25.6210 F   0  0  0  0  0  0  0  0  0  0  0  0
    5.3600   -2.0800   26.1550 F   0  0  0  0  0  0  0  0  0  0  0  0
    6.5720   -5.0340   21.7600 N   0  0  0  0  0  0  0  0  0  0  0  0
    6.0640   -4.5930   26.7810 O   0  0  0  0  0  0  0  0  0  0  0  0
    5.8500   -4.6960   19.6480 O   0  0  0  0  0  0  0  0  0  0  0  0
    5.0100   -5.0530   25.9270 S   0  0  2  0  0  0  0  0  0  0  0  0
  4  2  2  0
  6  5  1  0
  7  4  1  0
  8  7  2  0
  9  8  1  0
 10  9  2  0
 10  2  1  0
 11  1  1  0
 12 11  1  0
 14 13  1  0
 14  1  1  0
 15  2  1  0
 16  9  1  0
 17 12  1  0
 17  5  1  0
 17 13  1  0
 19  5  2  0
 20  3  2  0
 20 10  1  6
 20 18  2  0
 20  1  1  0
M  END
