
     RDKit          3D

 10 10  0  0  0  0  0  0  0  0999 V2000
   27.6350  -10.7230   16.3390 C   0  0  0  0  0  0  0  0  0  0  0  0
   28.9400   -9.4150   14.6890 C   0  0  0  0  0  0  0  0  0  0  0  0
   28.1040  -11.6490   14.1050 C   0  0  0  0  0  0  0  0  0  0  0  0
   28.7030  -11.5700   12.8350 C   0  0  0  0  0  0  0  0  0  0  0  0
   28.5320  -12.5990   11.9460 C   0  0  0  0  0  0  0  0  0  0  0  0
   27.2080  -13.7910   13.4240 C   0  0  0  0  0  0  0  0  0  0  0  0
   27.3350  -12.7920   14.3970 C   0  0  0  0  0  0  0  0  0  0  0  0
   28.2380  -10.6350   15.0240 N   0  0  0  0  0  0  0  0  0  0  0  0
   27.8030  -13.6950   12.2120 N   0  0  0  0  0  0  0  0  0  0  0  0
   26.4740  -14.9080   13.6570 N   0  0  0  0  0  0  0  0  0  0  0  0
  4  3  1  0
  5  4  1  0
  7  6  1  0
  7  3  1  0
  8  3  1  0
  8  2  1  0
  8  1  1  0
  9  6  1  0
  9  5  1  0
 10  6  1  0
M  END
