
     RDKit          3D

 21 23  0  0  0  0  0  0  0  0999 V2000
    9.1740    0.8930   21.0900 O   0  0  0  0  0  0  0  0  0  0  0  0
    8.7070   -0.1870   21.4480 C   0  0  0  0  0  0  0  0  0  0  0  0
    9.2990   -0.9690   22.6050 C   0  0  0  0  0  0  0  0  0  0  0  0
   10.7010   -0.5150   22.9350 C   0  0  0  0  0  0  0  0  0  0  0  0
   10.9570    0.4100   23.9390 C   0  0  0  0  0  0  0  0  0  0  0  0
   12.2670    0.8130   24.1520 C   0  0  0  0  0  0  0  0  0  0  0  0
   13.2880    0.2900   23.3720 C   0  0  0  0  0  0  0  0  0  0  0  0
   11.6740   -1.0450   22.1760 N   0  0  0  0  0  0  0  0  0  0  0  0
   12.9160   -0.6420   22.4190 C   0  0  0  0  0  0  0  0  0  0  0  0
   14.1460   -1.4070   21.4590 Cl  0  0  0  0  0  0  0  0  0  0  0  0
    7.6300   -0.7640   20.8790 N   0  0  0  0  0  0  0  0  0  0  0  0
    6.8000   -0.2370   19.8710 C   0  0  0  0  0  0  0  0  0  0  0  0
    5.6450    0.5050   20.2680 C   0  0  0  0  0  0  0  0  0  0  0  0
    5.2280    0.6550   21.6170 C   0  0  0  0  0  0  0  0  0  0  0  0
    4.1410    1.4180   21.9340 C   0  0  0  0  0  0  0  0  0  0  0  0
    3.4170    2.0640   20.9430 C   0  0  0  0  0  0  0  0  0  0  0  0
    3.7670    1.9380   19.6290 C   0  0  0  0  0  0  0  0  0  0  0  0
    4.8890    1.1590   19.2550 C   0  0  0  0  0  0  0  0  0  0  0  0
    5.3260    1.0200   17.9140 C   0  0  0  0  0  0  0  0  0  0  0  0
    6.3930    0.3220   17.5470 N   0  0  0  0  0  0  0  0  0  0  0  0
    7.0940   -0.2920   18.5090 C   0  0  0  0  0  0  0  0  0  0  0  0
  2  1  2  0
  3  2  1  0
  4  3  1  0
  5  4  2  0
  6  5  1  0
  7  6  2  0
  8  4  1  0
  9  8  2  0
  9  7  1  0
 10  9  1  0
 11  2  1  0
 12 11  1  0
 13 12  1  0
 14 13  2  0
 15 14  1  0
 16 15  2  0
 17 16  1  0
 18 17  2  0
 18 13  1  0
 19 18  1  0
 20 19  2  0
 21 20  1  0
 21 12  2  0
M  END
