
     RDKit          3D

 25 28  0  0  0  0  0  0  0  0999 V2000
   14.1300   -1.5790   21.1420 Cl  0  0  0  0  0  0  0  0  0  0  0  0
   13.0640   -0.6930   22.1980 C   0  0  0  0  0  0  0  0  0  0  0  0
   13.5860    0.2860   23.0160 C   0  0  0  0  0  0  0  0  0  0  0  0
   12.7290    1.0560   23.7820 C   0  0  0  0  0  0  0  0  0  0  0  0
   11.7080   -0.9420   22.1380 C   0  0  0  0  0  0  0  0  0  0  0  0
   10.8280   -0.1690   22.8940 C   0  0  0  0  0  0  0  0  0  0  0  0
   11.3640    0.8260   23.7210 C   0  0  0  0  0  0  0  0  0  0  0  0
   10.6000    1.5950   24.5680 O   0  0  0  0  0  0  0  0  0  0  0  0
    9.1690    1.5450   24.3800 C   0  0  0  0  0  0  0  0  0  0  0  0
    8.6810    0.1450   24.1060 C   0  0  0  0  0  0  0  0  0  0  0  0
    9.3280   -0.3840   22.8170 C   0  0  1  0  0  0  0  0  0  0  0  0
    8.7890    0.3310   21.5750 C   0  0  0  0  0  0  0  0  0  0  0  0
    9.4800    1.0980   20.9130 O   0  0  0  0  0  0  0  0  0  0  0  0
    7.4720    0.1290   21.3330 N   0  0  0  0  0  0  0  0  0  0  0  0
    6.7390    0.2660   20.1390 C   0  0  0  0  0  0  0  0  0  0  0  0
    7.2590    0.1300   18.8500 C   0  0  0  0  0  0  0  0  0  0  0  0
    6.6650    0.5400   17.7230 N   0  0  0  0  0  0  0  0  0  0  0  0
    5.4980    1.1500   17.8370 C   0  0  0  0  0  0  0  0  0  0  0  0
    5.4590    0.8930   20.2540 C   0  0  0  0  0  0  0  0  0  0  0  0
    4.8230    1.1310   21.5000 C   0  0  0  0  0  0  0  0  0  0  0  0
    3.6650    1.8360   21.5210 C   0  0  0  0  0  0  0  0  0  0  0  0
    3.0230    1.9860   22.7120 F   0  0  0  0  0  0  0  0  0  0  0  0
    4.8420    1.3800   19.0680 C   0  0  0  0  0  0  0  0  0  0  0  0
    3.6440    2.1250   19.1770 C   0  0  0  0  0  0  0  0  0  0  0  0
    3.0740    2.3550   20.3940 C   0  0  0  0  0  0  0  0  0  0  0  0
  2  1  1  0
  3  2  2  0
  4  3  1  0
  5  2  1  0
  6  5  2  0
  7  6  1  0
  7  4  2  0
  8  7  1  0
  9  8  1  0
 10  9  1  0
 11 10  1  0
 11  6  1  0
 11 12  1  6
 13 12  2  0
 14 12  1  0
 15 14  1  0
 16 15  2  0
 17 16  1  0
 18 17  2  0
 19 15  1  0
 20 19  2  0
 21 20  1  0
 22 21  1  0
 23 19  1  0
 23 18  1  0
 24 23  2  0
 25 24  1  0
 25 21  2  0
M  END
> <BADATOMS>
11;10;13;14;15;16;17;22;18;19;20;21;24;23;9;8;7;6;5;4;1;2;3;0
> <BADCOMMENTS>
Weak Density;Weak Density;Weak Density;Weak Density;Weak Density;Weak Density;Weak Density;Weak Density;Weak Density;Weak Density;Weak Density;Weak Density;Weak Density;Weak Density;Weak Density;Weak Density;Weak Density;Weak Density;Weak Density;Weak Density;Weak Density;Weak Density;Weak Density;Weak Density
> <BADATOMNAMES>
[HET]1.C12;[HET]1.C11;[HET]1.N14;[HET]1.C15;[HET]1.C16;[HET]1.N17;[HET]1.C18;[HET]1.C23;[HET]1.C19;[HET]1.C20;[HET]1.C21;[HET]1.F22;[HET]1.C25;[HET]1.C24;[HET]1.C10;[HET]1.C9;[HET]1.O8;[HET]1.C7;[HET]1.C6;[HET]1.C5;[HET]1.C2;[HET]1.C3;[HET]1.C4;[HET]1.CL1