
     RDKit          3D

 37 41  0  0  0  0  0  0  0  0999 V2000
    9.2890    1.2700   20.9110 O   0  0  0  0  0  0  0  0  0  0  0  0
    8.8370    0.2620   21.4380 C   0  0  0  0  0  0  0  0  0  0  0  0
    7.6590   -0.2750   21.0330 N   0  0  0  0  0  0  0  0  0  0  0  0
    6.8400    0.1710   19.9700 C   0  0  0  0  0  0  0  0  0  0  0  0
    5.6820    0.9570   20.2710 C   0  0  0  0  0  0  0  0  0  0  0  0
    5.2680    1.2820   21.5890 C   0  0  0  0  0  0  0  0  0  0  0  0
    4.1580    2.0490   21.8090 C   0  0  0  0  0  0  0  0  0  0  0  0
    3.4100    2.5350   20.7450 C   0  0  0  0  0  0  0  0  0  0  0  0
    3.7680    2.2520   19.4580 C   0  0  0  0  0  0  0  0  0  0  0  0
    4.9090    1.4580   19.1840 C   0  0  0  0  0  0  0  0  0  0  0  0
    5.3350    1.1440   17.8740 C   0  0  0  0  0  0  0  0  0  0  0  0
    6.4040    0.4150   17.5930 N   0  0  0  0  0  0  0  0  0  0  0  0
    7.1200   -0.0550   18.6240 C   0  0  0  0  0  0  0  0  0  0  0  0
    9.5920   -0.4330   22.6030 C   0  0  1  0  0  0  0  0  0  0  0  0
   11.0810   -0.0740   22.6130 C   0  0  0  0  0  0  0  0  0  0  0  0
   11.9850   -0.8400   21.8810 C   0  0  0  0  0  0  0  0  0  0  0  0
   13.2980   -0.4280   21.7730 C   0  0  0  0  0  0  0  0  0  0  0  0
   14.3530   -1.2650   20.6670 Cl  0  0  0  0  0  0  0  0  0  0  0  0
   13.7650    0.6950   22.4230 C   0  0  0  0  0  0  0  0  0  0  0  0
   12.8940    1.4400   23.1950 C   0  0  0  0  0  0  0  0  0  0  0  0
   11.5670    1.0550   23.2900 C   0  0  0  0  0  0  0  0  0  0  0  0
   10.7800    1.8710   24.0700 O   0  0  0  0  0  0  0  0  0  0  0  0
    9.3570    1.6000   24.1010 C   0  0  0  0  0  0  0  0  0  0  0  0
    9.0120    0.1370   23.9170 C   0  0  0  0  0  0  0  0  0  0  0  0
    9.4620   -1.9780   22.5360 C   0  0  0  0  0  0  0  0  0  0  0  0
    8.2780   -2.5520   23.2810 C   0  0  0  0  0  0  0  0  0  0  0  0
    7.1500   -2.4430   22.8220 O   0  0  0  0  0  0  0  0  0  0  0  0
    8.5170   -3.2230   24.4290 N   0  0  0  0  0  0  0  0  0  0  0  0
    8.0640   -2.7140   25.7330 C   0  0  0  0  0  0  0  0  0  0  0  0
    9.1480   -2.9090   26.7930 C   0  0  0  0  0  0  0  0  0  0  0  0
    9.0850   -4.5810   24.4420 C   0  0  0  0  0  0  0  0  0  0  0  0
   10.1200   -4.7320   25.5670 C   0  0  0  0  0  0  0  0  0  0  0  0
    9.5530   -4.3220   26.8650 N   0  0  0  0  0  0  0  0  0  0  0  0
    8.4410   -5.1870   27.2960 C   0  0  0  0  0  0  0  0  0  0  0  0
    8.4580   -5.5540   28.7700 C   0  0  0  0  0  0  0  0  0  0  0  0
    7.0900   -5.5060   29.4290 C   0  0  0  0  0  0  0  0  0  0  0  0
    6.8230   -4.2300   30.0030 O   0  0  0  0  0  0  0  0  0  0  0  0
  2  1  2  0
  3  2  1  0
  4  3  1  0
  5  4  1  0
  6  5  2  0
  7  6  1  0
  8  7  2  0
  9  8  1  0
 10  9  2  0
 10  5  1  0
 11 10  1  0
 12 11  2  0
 13 12  1  0
 13  4  2  0
 14  2  1  0
 15 14  1  0
 16 15  2  0
 17 16  1  0
 18 17  1  0
 19 17  2  0
 20 19  1  0
 21 20  2  0
 21 15  1  0
 22 21  1  0
 23 22  1  0
 24 23  1  0
 24 14  1  0
 14 25  1  1
 26 25  1  0
 27 26  2  0
 28 26  1  0
 29 28  1  0
 30 29  1  0
 31 28  1  0
 32 31  1  0
 33 32  1  0
 33 30  1  0
 34 33  1  0
 35 34  1  0
 36 35  1  0
 37 36  1  0
M  END
> <BADATOMS>
27;30;28;29;31;32;33;34;35;36
> <BADCOMMENTS>
Weak Density;Weak Density;Weak Density;Weak Density;Weak Density;Weak Density;Weak Density;Weak Density;Weak Density;Weak Density
> <BADATOMNAMES>
[HET]1.N28;[HET]1.C31;[HET]1.C29;[HET]1.C30;[HET]1.C32;[HET]1.N33;[HET]1.C34;[HET]1.C35;[HET]1.C36;[HET]1.O37