
     RDKit          3D

 33 37  0  0  0  0  0  0  0  0999 V2000
    8.8140    6.9800   22.4450 N   0  0  0  0  0  0  0  0  0  0  0  0
    8.1310    6.0780   22.5640 C   0  0  0  0  0  0  0  0  0  0  0  0
    7.1990    4.9510   22.7230 C   0  0  1  0  0  0  0  0  0  0  0  0
    5.8880    5.2140   23.4260 C   0  0  0  0  0  0  0  0  0  0  0  0
    5.9080    5.0890   21.9530 C   0  0  0  0  0  0  0  0  0  0  0  0
    7.8480    3.5780   22.7790 C   0  0  0  0  0  0  0  0  0  0  0  0
    8.1240    2.8420   24.3770 S   0  0  2  0  0  0  0  0  0  0  0  0
    6.8950    2.2810   24.8440 O   0  0  0  0  0  0  0  0  0  0  0  0
    8.8080    3.7930   25.1940 O   0  0  0  0  0  0  0  0  0  0  0  0
    9.1480    1.6000   24.1160 N   0  0  0  0  0  0  0  0  0  0  0  0
   10.5590    1.7440   24.4960 C   0  0  0  0  0  0  0  0  0  0  0  0
    8.6720    0.2060   24.0610 C   0  0  0  0  0  0  0  0  0  0  0  0
    9.3480   -0.4190   22.8400 C   0  0  2  0  0  0  0  0  0  0  0  0
   10.8520   -0.2250   22.8980 C   0  0  0  0  0  0  0  0  0  0  0  0
   11.4140    0.7860   23.6960 C   0  0  0  0  0  0  0  0  0  0  0  0
   12.8000    0.9320   23.7280 C   0  0  0  0  0  0  0  0  0  0  0  0
   13.6240    0.1180   22.9740 C   0  0  0  0  0  0  0  0  0  0  0  0
   11.6880   -1.0520   22.1490 C   0  0  0  0  0  0  0  0  0  0  0  0
   13.0560   -0.8590   22.1910 C   0  0  0  0  0  0  0  0  0  0  0  0
   14.0790   -1.8330   21.1750 Cl  0  0  0  0  0  0  0  0  0  0  0  0
    8.8070    0.2220   21.5600 C   0  0  0  0  0  0  0  0  0  0  0  0
    9.2880    1.2490   21.0930 O   0  0  0  0  0  0  0  0  0  0  0  0
    7.7130   -0.3810   21.0460 N   0  0  0  0  0  0  0  0  0  0  0  0
    6.8930    0.0770   19.9920 C   0  0  0  0  0  0  0  0  0  0  0  0
    5.7200    0.8320   20.3190 C   0  0  0  0  0  0  0  0  0  0  0  0
    5.3000    1.1000   21.6480 C   0  0  0  0  0  0  0  0  0  0  0  0
    4.1980    1.8690   21.8950 C   0  0  0  0  0  0  0  0  0  0  0  0
    3.4590    2.4040   20.8470 C   0  0  0  0  0  0  0  0  0  0  0  0
    3.8150    2.1660   19.5500 C   0  0  0  0  0  0  0  0  0  0  0  0
    4.9510    1.3730   19.2500 C   0  0  0  0  0  0  0  0  0  0  0  0
    5.3920    1.1220   17.9260 C   0  0  0  0  0  0  0  0  0  0  0  0
    6.4790    0.4260   17.6240 N   0  0  0  0  0  0  0  0  0  0  0  0
    7.1930   -0.0800   18.6390 C   0  0  0  0  0  0  0  0  0  0  0  0
  2  1  3  0
  3  2  1  6
  4  3  1  0
  5  4  1  0
  5  3  1  0
  6  3  1  0
  7  6  1  6
  8  7  2  0
  9  7  2  0
 10  7  1  0
 11 10  1  0
 12 10  1  0
 13 12  1  0
 14 13  1  0
 15 14  2  0
 15 11  1  0
 16 15  1  0
 17 16  2  0
 18 14  1  0
 19 18  2  0
 19 17  1  0
 20 19  1  0
 13 21  1  6
 22 21  2  0
 23 21  1  0
 24 23  1  0
 25 24  1  0
 26 25  2  0
 27 26  1  0
 28 27  2  0
 29 28  1  0
 30 29  2  0
 30 25  1  0
 31 30  1  0
 32 31  2  0
 33 32  1  0
 33 24  2  0
M  END
