
     RDKit          3D

 24 26  0  0  0  0  0  0  0  0999 V2000
   13.8840   -1.6020   21.3570 Cl  0  0  0  0  0  0  0  0  0  0  0  0
   12.5660   -0.9150   22.2510 C   0  0  0  0  0  0  0  0  0  0  0  0
   12.7780    0.1240   23.1480 C   0  0  0  0  0  0  0  0  0  0  0  0
   14.3780    0.6670   23.5270 Cl  0  0  0  0  0  0  0  0  0  0  0  0
   11.7010    0.7510   23.7420 C   0  0  0  0  0  0  0  0  0  0  0  0
   10.4170    0.3310   23.4530 C   0  0  0  0  0  0  0  0  0  0  0  0
   11.2810   -1.3470   21.9820 C   0  0  0  0  0  0  0  0  0  0  0  0
   10.1900   -0.7200   22.5750 C   0  0  0  0  0  0  0  0  0  0  0  0
    8.7880   -1.1630   22.2330 C   0  0  1  0  0  0  0  0  0  0  0  0
    8.0210   -1.6080   23.3480 O   0  0  0  0  0  0  0  0  0  0  0  0
    7.3500   -0.5490   24.0420 C   0  0  0  0  0  0  0  0  0  0  0  0
    8.1010   -0.1860   21.2750 C   0  0  0  0  0  0  0  0  0  0  0  0
    8.6000    0.9150   21.0360 O   0  0  0  0  0  0  0  0  0  0  0  0
    6.9900   -0.6570   20.6710 N   0  0  0  0  0  0  0  0  0  0  0  0
    6.2950   -0.0770   19.6030 C   0  0  0  0  0  0  0  0  0  0  0  0
    5.2200    0.8160   19.8920 C   0  0  0  0  0  0  0  0  0  0  0  0
    4.7490    1.0870   21.2020 C   0  0  0  0  0  0  0  0  0  0  0  0
    3.7410    1.9820   21.4140 C   0  0  0  0  0  0  0  0  0  0  0  0
    3.1490    2.6460   20.3490 C   0  0  0  0  0  0  0  0  0  0  0  0
    3.5650    2.4170   19.0700 C   0  0  0  0  0  0  0  0  0  0  0  0
    4.6140    1.5030   18.8060 C   0  0  0  0  0  0  0  0  0  0  0  0
    5.1220    1.2560   17.5100 C   0  0  0  0  0  0  0  0  0  0  0  0
    6.1170    0.4230   17.2430 N   0  0  0  0  0  0  0  0  0  0  0  0
    6.6740   -0.2260   18.2720 C   0  0  0  0  0  0  0  0  0  0  0  0
  2  1  1  0
  3  2  2  0
  4  3  1  0
  5  3  1  0
  6  5  2  0
  7  2  1  0
  8  6  1  0
  8  7  2  0
  9  8  1  0
  9 10  1  1
 11 10  1  0
 12  9  1  0
 13 12  2  0
 14 12  1  0
 15 14  1  0
 16 15  1  0
 17 16  2  0
 18 17  1  0
 19 18  2  0
 20 19  1  0
 21 20  2  0
 21 16  1  0
 22 21  1  0
 23 22  2  0
 24 23  1  0
 24 15  2  0
M  END
