
     RDKit          3D

 26 29  0  0  0  0  0  0  0  0999 V2000
    6.7860    1.0700   16.7290 O   0  0  0  0  0  0  0  0  0  0  0  0
    6.1880    0.8010   17.7750 C   0  0  0  0  0  0  0  0  0  0  0  0
    6.4190   -0.3780   18.5380 C   0  0  0  0  0  0  0  0  0  0  0  0
    5.2770    1.6840   18.2960 N   0  0  0  0  0  0  0  0  0  0  0  0
    4.6100    1.5010   19.5030 C   0  0  0  0  0  0  0  0  0  0  0  0
    4.8750    0.3510   20.2710 C   0  0  0  0  0  0  0  0  0  0  0  0
    4.2360    0.1860   21.4980 C   0  0  0  0  0  0  0  0  0  0  0  0
    3.3110    1.1230   21.9260 C   0  0  0  0  0  0  0  0  0  0  0  0
    3.0280    2.2300   21.1530 C   0  0  0  0  0  0  0  0  0  0  0  0
    3.6800    2.4370   19.9500 C   0  0  0  0  0  0  0  0  0  0  0  0
    5.8170   -0.6190   19.7310 C   0  0  0  0  0  0  0  0  0  0  0  0
    6.1400   -1.8560   20.4700 C   0  0  0  0  0  0  0  0  0  0  0  0
    5.2780   -2.7050   20.6520 O   0  0  0  0  0  0  0  0  0  0  0  0
    7.3770   -1.9930   20.9560 N   0  0  0  0  0  0  0  0  0  0  0  0
    8.6450   -1.2570   20.9930 C   0  0  0  0  0  0  0  0  0  0  0  0
    7.8130   -3.0310   21.8930 C   0  0  0  0  0  0  0  0  0  0  0  0
    9.1650   -2.2990   22.0020 C   0  0  2  0  0  0  0  0  0  0  0  0
    9.5090   -1.7930   23.3160 N   0  0  0  0  0  0  0  0  0  0  0  0
   10.5490   -0.9310   23.5450 C   0  0  0  0  0  0  0  0  0  0  0  0
   10.5560   -0.2310   24.7590 C   0  0  0  0  0  0  0  0  0  0  0  0
    9.5110   -0.5300   25.5880 O   0  0  0  0  0  0  0  0  0  0  0  0
    9.3550    0.2360   26.7820 C   0  0  0  0  0  0  0  0  0  0  0  0
   11.5870   -0.7370   22.6340 C   0  0  0  0  0  0  0  0  0  0  0  0
   12.6160    0.1420   22.9450 C   0  0  0  0  0  0  0  0  0  0  0  0
   12.6100    0.8300   24.1430 C   0  0  0  0  0  0  0  0  0  0  0  0
   11.5800    0.6550   25.0550 C   0  0  0  0  0  0  0  0  0  0  0  0
  2  1  2  0
  3  2  1  0
  4  2  1  0
  5  4  1  0
  6  5  2  0
  7  6  1  0
  8  7  2  0
  9  8  1  0
 10  9  2  0
 10  5  1  0
 11  6  1  0
 11  3  2  0
 12 11  1  0
 13 12  2  0
 14 12  1  0
 15 14  1  0
 16 14  1  0
 17 15  1  0
 17 16  1  0
 17 18  1  1
 19 18  1  0
 20 19  2  0
 21 20  1  0
 22 21  1  0
 23 19  1  0
 24 23  2  0
 25 24  1  0
 26 20  1  0
 26 25  2  0
M  END
