
     RDKit          3D

 31 34  0  0  0  0  0  0  0  0999 V2000
    9.0380    1.4660   21.1770 O   0  0  0  0  0  0  0  0  0  0  0  0
    8.8480    0.3870   21.7290 C   0  0  0  0  0  0  0  0  0  0  0  0
    7.9360   -0.6500   21.0980 C   0  0  0  0  0  0  0  0  0  0  0  0
    7.0600   -0.0640   20.0120 C   0  0  0  0  0  0  0  0  0  0  0  0
    5.9530    0.7700   20.3370 C   0  0  0  0  0  0  0  0  0  0  0  0
    5.5710    1.0780   21.6700 C   0  0  0  0  0  0  0  0  0  0  0  0
    4.5090    1.9010   21.9250 C   0  0  0  0  0  0  0  0  0  0  0  0
    3.7780    2.4560   20.8840 C   0  0  0  0  0  0  0  0  0  0  0  0
    4.1090    2.1940   19.5850 C   0  0  0  0  0  0  0  0  0  0  0  0
    5.1960    1.3430   19.2770 C   0  0  0  0  0  0  0  0  0  0  0  0
    5.5940    1.0370   17.9510 C   0  0  0  0  0  0  0  0  0  0  0  0
    6.6210    0.2480   17.6500 N   0  0  0  0  0  0  0  0  0  0  0  0
    7.3220   -0.2770   18.6700 C   0  0  0  0  0  0  0  0  0  0  0  0
    9.3950    0.0920   22.9440 N   0  0  0  0  0  0  0  0  0  0  0  0
    9.2220   -1.1420   23.5900 C   0  0  0  0  0  0  0  0  0  0  0  0
    8.4100   -1.2630   24.7090 C   0  0  0  0  0  0  0  0  0  0  0  0
    8.3820   -2.4900   25.3420 C   0  0  0  0  0  0  0  0  0  0  0  0
    9.9490   -2.1470   23.0810 N   0  0  0  0  0  0  0  0  0  0  0  0
    9.9010   -3.3380   23.7040 C   0  0  0  0  0  0  0  0  0  0  0  0
    9.1310   -3.5590   24.8440 C   0  0  0  0  0  0  0  0  0  0  0  0
    9.1050   -4.8100   25.4560 N   0  0  0  0  0  0  0  0  0  0  0  0
    8.7060   -4.9500   26.8470 C   0  0  0  0  0  0  0  0  0  0  0  0
    9.8790   -5.9250   24.9280 C   0  0  0  0  0  0  0  0  0  0  0  0
   10.1850    1.1280   23.6230 C   0  0  0  0  0  0  0  0  0  0  0  0
   11.6250    1.1810   23.1700 C   0  0  0  0  0  0  0  0  0  0  0  0
   12.2290    0.0600   22.6070 C   0  0  0  0  0  0  0  0  0  0  0  0
   13.5060    0.1610   22.0870 C   0  0  0  0  0  0  0  0  0  0  0  0
   14.1510   -1.1750   21.1670 Cl  0  0  0  0  0  0  0  0  0  0  0  0
   14.2530    1.3100   22.2200 C   0  0  0  0  0  0  0  0  0  0  0  0
   13.6600    2.4230   22.7960 C   0  0  0  0  0  0  0  0  0  0  0  0
   12.3500    2.3630   23.2480 C   0  0  0  0  0  0  0  0  0  0  0  0
  2  1  2  0
  3  2  1  0
  4  3  1  0
  5  4  1  0
  6  5  2  0
  7  6  1  0
  8  7  2  0
  9  8  1  0
 10  9  2  0
 10  5  1  0
 11 10  1  0
 12 11  2  0
 13 12  1  0
 13  4  2  0
 14  2  1  0
 15 14  1  0
 16 15  2  0
 17 16  1  0
 18 15  1  0
 19 18  2  0
 20 19  1  0
 20 17  2  0
 21 20  1  0
 22 21  1  0
 23 21  1  0
 24 14  1  0
 25 24  1  0
 26 25  2  0
 27 26  1  0
 28 27  1  0
 29 27  2  0
 30 29  1  0
 31 30  2  0
 31 25  1  0
M  END
