
     RDKit          3D

 32 36  0  0  0  0  0  0  0  0999 V2000
    7.3630    2.3970   25.7230 O   0  0  0  0  0  0  0  0  0  0  0  0
    6.9060    1.0890   25.3620 S   0  0  2  0  0  0  0  0  0  0  0  0
    5.7090    0.9370   24.5950 O   0  0  0  0  0  0  0  0  0  0  0  0
    6.8280    0.1610   26.7810 C   0  0  0  0  0  0  0  0  0  0  0  0
    6.1670   -1.0000   26.9690 N   0  0  0  0  0  0  0  0  0  0  0  0
    6.4240   -1.4210   28.2420 C   0  0  0  0  0  0  0  0  0  0  0  0
    7.2380   -0.4820   28.7870 C   0  0  0  0  0  0  0  0  0  0  0  0
    7.4870    0.5130   27.8680 N   0  0  0  0  0  0  0  0  0  0  0  0
    8.1240    0.4280   24.5030 N   0  0  0  0  0  0  0  0  0  0  0  0
    9.4850    0.7480   24.9560 C   0  0  0  0  0  0  0  0  0  0  0  0
    7.9450   -0.9410   23.9830 C   0  0  0  0  0  0  0  0  0  0  0  0
    8.7750   -1.0690   22.7060 C   0  0  2  0  0  0  0  0  0  0  0  0
   10.2200   -0.6920   22.9770 C   0  0  0  0  0  0  0  0  0  0  0  0
   10.5330    0.2140   24.0050 C   0  0  2  0  0  0  0  0  0  0  0  0
   11.8660    0.5750   24.2060 C   0  0  0  0  0  0  0  0  0  0  0  0
   12.8780    0.0310   23.4370 C   0  0  0  0  0  0  0  0  0  0  0  0
   11.2460   -1.2400   22.2080 C   0  0  0  0  0  0  0  0  0  0  0  0
   12.5550   -0.8760   22.4540 C   0  0  0  0  0  0  0  0  0  0  0  0
   13.8250   -1.5910   21.5010 Cl  0  0  0  0  0  0  0  0  0  0  0  0
    8.2360   -0.1390   21.6170 C   0  0  0  0  0  0  0  0  0  0  0  0
    8.4450    1.0720   21.6290 O   0  0  0  0  0  0  0  0  0  0  0  0
    7.5080   -0.7550   20.6630 N   0  0  0  0  0  0  0  0  0  0  0  0
    6.5900   -0.2550   19.7150 C   0  0  1  0  0  0  0  0  0  0  0  0
    5.6080    0.7320   20.0630 C   0  0  2  0  0  0  0  0  0  0  0  0
    5.1250    0.9310   21.3820 C   0  0  0  0  0  0  0  0  0  0  0  0
    4.0730    1.7680   21.6330 C   0  0  0  0  0  0  0  0  0  0  0  0
    3.4600    2.4620   20.5980 C   0  0  0  0  0  0  0  0  0  0  0  0
    3.8920    2.3160   19.3120 C   0  0  0  0  0  0  0  0  0  0  0  0
    4.9670    1.4440   19.0060 C   0  0  2  0  0  0  0  0  0  0  0  0
    5.3550    1.1460   17.6800 C   0  0  0  0  0  0  0  0  0  0  0  0
    6.2420    0.2240   17.3550 N   0  0  0  0  0  0  0  0  0  0  0  0
    6.8200   -0.4550   18.3530 C   0  0  0  0  0  0  0  0  0  0  0  0
  2  1  1  1
  3  2  1  0
  4  2  1  0
  5  4  1  0
  6  5  1  0
  7  6  1  0
  8  4  1  0
  8  7  1  0
  9  2  1  0
 10  9  1  0
 11  9  1  0
 12 11  1  0
 13 12  1  0
 14 13  1  0
 14 10  1  1
 15 14  1  0
 16 15  1  0
 17 13  1  0
 18 17  1  0
 18 16  1  0
 19 18  1  0
 12 20  1  6
 21 20  1  0
 22 20  1  0
 23 22  1  1
 24 23  1  0
 24 25  1  6
 26 25  1  0
 27 26  1  0
 28 27  1  0
 29 28  1  6
 29 24  1  0
 30 29  1  0
 31 30  1  0
 32 31  1  0
 32 23  1  0
M  END
$$$$
