
     RDKit          3D

 28 31  0  0  0  0  0  0  0  0999 V2000
    9.2530    1.1380   21.1340 O   0  0  0  0  0  0  0  0  0  0  0  0
    9.0080    0.0180   21.5710 C   0  0  0  0  0  0  0  0  0  0  0  0
    7.9270   -0.8450   20.9460 C   0  0  0  0  0  0  0  0  0  0  0  0
    7.1400   -0.1120   19.8870 C   0  0  0  0  0  0  0  0  0  0  0  0
    6.0710    0.7570   20.2430 C   0  0  0  0  0  0  0  0  0  0  0  0
    5.7180    1.0510   21.5860 C   0  0  0  0  0  0  0  0  0  0  0  0
    4.6930    1.9100   21.8730 C   0  0  0  0  0  0  0  0  0  0  0  0
    3.9760    2.5200   20.8540 C   0  0  0  0  0  0  0  0  0  0  0  0
    4.2790    2.2710   19.5460 C   0  0  0  0  0  0  0  0  0  0  0  0
    5.3290    1.3840   19.2040 C   0  0  0  0  0  0  0  0  0  0  0  0
    5.7060    1.0970   17.8710 C   0  0  0  0  0  0  0  0  0  0  0  0
    6.7150    0.3010   17.5410 N   0  0  0  0  0  0  0  0  0  0  0  0
    7.4000   -0.2780   18.5390 C   0  0  0  0  0  0  0  0  0  0  0  0
    9.6620   -0.4970   22.6370 N   0  0  0  0  0  0  0  0  0  0  0  0
   10.5880    0.3290   23.3820 C   0  0  0  0  0  0  0  0  0  0  0  0
   12.0010    0.0220   22.9940 C   0  0  0  0  0  0  0  0  0  0  0  0
   13.2950    0.8310   23.7180 S   0  0  0  0  0  0  0  0  0  0  0  0
   14.4370    0.0060   22.7370 C   0  0  0  0  0  0  0  0  0  0  0  0
   13.8620   -0.8690   21.8840 C   0  0  0  0  0  0  0  0  0  0  0  0
   12.4530   -0.8910   22.0130 C   0  0  0  0  0  0  0  0  0  0  0  0
    9.5030   -1.8810   23.1100 C   0  0  0  0  0  0  0  0  0  0  0  0
    8.5300   -1.9770   24.2750 C   0  0  0  0  0  0  0  0  0  0  0  0
    8.5270   -3.3900   24.8630 C   0  0  1  0  0  0  0  0  0  0  0  0
    9.8350   -3.7000   25.5890 C   0  0  0  0  0  0  0  0  0  0  0  0
    9.8440   -5.0960   26.2130 C   0  0  0  0  0  0  0  0  0  0  0  0
    8.6580   -5.2990   27.1460 C   0  0  0  0  0  0  0  0  0  0  0  0
    7.3510   -5.0090   26.4250 C   0  0  0  0  0  0  0  0  0  0  0  0
    7.3490   -3.6090   25.8120 C   0  0  0  0  0  0  0  0  0  0  0  0
  2  1  1  0
  3  2  1  0
  4  3  1  0
  5  4  1  0
  6  5  1  0
  7  6  1  0
  8  7  1  0
  9  8  1  0
 10  9  1  0
 10  5  1  0
 11 10  1  0
 12 11  1  0
 13 12  1  0
 13  4  1  0
 14  2  1  0
 15 14  1  0
 16 15  1  0
 17 16  1  0
 18 17  1  0
 19 18  1  0
 20 19  1  0
 20 16  1  0
 21 14  1  0
 22 21  1  0
 23 22  1  1
 24 23  1  0
 25 24  1  0
 26 25  1  0
 27 26  1  0
 28 27  1  0
 28 23  1  0
M  END
$$$$
