
     RDKit          3D

 21 23  0  0  0  0  0  0  0  0999 V2000
    9.3380    0.9960   21.1660 O   0  0  0  0  0  0  0  0  0  0  0  0
    8.8520   -0.0570   21.5830 C   0  0  0  0  0  0  0  0  0  0  0  0
    9.5230   -0.8750   22.6700 C   0  0  0  0  0  0  0  0  0  0  0  0
   10.9860   -0.5350   22.8380 C   0  0  0  0  0  0  0  0  0  0  0  0
   11.3910    0.4590   23.7250 C   0  0  0  0  0  0  0  0  0  0  0  0
   12.7280    0.8240   23.8250 C   0  0  0  0  0  0  0  0  0  0  0  0
   13.6840    0.1980   23.0400 C   0  0  0  0  0  0  0  0  0  0  0  0
   11.9500   -1.1810   22.0710 C   0  0  0  0  0  0  0  0  0  0  0  0
   13.2630   -0.7930   22.1890 C   0  0  0  0  0  0  0  0  0  0  0  0
   14.1860   -1.4080   21.3990 F   0  0  0  0  0  0  0  0  0  0  0  0
    7.6940   -0.5760   21.1150 N   0  0  0  0  0  0  0  0  0  0  0  0
    6.9070   -0.0810   20.0560 C   0  0  1  0  0  0  0  0  0  0  0  0
    5.7550    0.7060   20.3690 C   0  0  0  0  0  0  0  0  0  0  0  0
    5.3220    0.9820   21.6920 C   0  0  0  0  0  0  0  0  0  0  0  0
    4.2370    1.7810   21.9250 C   0  0  0  0  0  0  0  0  0  0  0  0
    3.5260    2.3330   20.8690 C   0  0  0  0  0  0  0  0  0  0  0  0
    3.9010    2.0950   19.5770 C   0  0  0  0  0  0  0  0  0  0  0  0
    5.0250    1.2820   19.2910 C   0  0  0  0  0  0  0  0  0  0  0  0
    5.4920    1.0400   17.9730 C   0  0  0  0  0  0  0  0  0  0  0  0
    6.5650    0.3150   17.6830 N   0  0  0  0  0  0  0  0  0  0  0  0
    7.2420   -0.2260   18.7080 C   0  0  0  0  0  0  0  0  0  0  0  0
  2  1  1  0
  3  2  1  0
  4  3  1  0
  5  4  1  0
  6  5  1  0
  7  6  1  0
  8  4  1  0
  9  8  1  0
  9  7  1  0
 10  9  1  0
 11  2  1  0
 12 11  1  1
 13 12  1  0
 14 13  1  0
 15 14  1  0
 16 15  1  0
 17 16  1  0
 18 17  1  0
 18 13  1  0
 19 18  1  0
 20 19  1  0
 21 20  1  0
 21 12  1  0
M  END
$$$$
