
     RDKit          3D

 27 31  0  0  0  0  0  0  0  0999 V2000
    9.1270    1.5820   21.0570 O   0  0  0  0  0  0  0  0  0  0  0  0
    8.7420    0.5160   21.4990 C   0  0  2  0  0  0  0  0  0  0  0  0
    9.2700   -0.1940   22.7680 C   0  0  2  0  0  0  0  0  0  0  0  0
    8.6330    0.5200   23.9820 C   0  0  0  0  0  0  0  0  0  0  0  0
    9.6480    1.0770   24.9650 C   0  0  0  0  0  0  0  0  0  0  0  0
   10.7830    1.6780   24.3220 O   0  0  0  0  0  0  0  0  0  0  0  0
   10.7930   -0.1970   22.8020 C   0  0  0  0  0  0  0  0  0  0  0  0
   11.4580    0.7780   23.5410 C   0  0  0  0  0  0  0  0  0  0  0  0
   12.8400    0.8600   23.5650 C   0  0  0  0  0  0  0  0  0  0  0  0
   13.5800   -0.0510   22.8330 C   0  0  0  0  0  0  0  0  0  0  0  0
   11.5490   -1.1210   22.0830 C   0  0  0  0  0  0  0  0  0  0  0  0
   12.9270   -1.0100   22.0870 C   0  0  1  0  0  0  0  0  0  0  0  0
   13.8540   -2.0150   21.0050 Cl  0  0  0  0  0  0  0  0  0  0  0  0
    7.8080   -0.3450   20.9200 N   0  0  0  0  0  0  0  0  0  0  0  0
    7.7980   -1.5880   21.5650 C   0  0  0  0  0  0  0  0  0  0  0  0
    7.0820   -2.5360   21.2690 O   0  0  0  0  0  0  0  0  0  0  0  0
    8.7020   -1.5250   22.5740 N   0  0  0  0  0  0  0  0  0  0  0  0
    6.9120    0.0410   19.8500 C   0  0  1  0  0  0  0  0  0  0  0  0
    5.7910    0.8750   20.1470 C   0  0  0  0  0  0  0  0  0  0  0  0
    5.2980    1.1220   21.4550 C   0  0  0  0  0  0  0  0  0  0  0  0
    4.2060    1.9230   21.6580 C   0  0  0  0  0  0  0  0  0  0  0  0
    3.5640    2.5300   20.5850 C   0  0  0  0  0  0  0  0  0  0  0  0
    4.0030    2.3270   19.3070 C   0  0  0  0  0  0  0  0  0  0  0  0
    5.1170    1.4870   19.0500 C   0  0  0  0  0  0  0  0  0  0  0  0
    5.5970    1.2120   17.7430 C   0  0  0  0  0  0  0  0  0  0  0  0
    6.6380    0.4330   17.4790 N   0  0  0  0  0  0  0  0  0  0  0  0
    7.2720   -0.1290   18.5170 C   0  0  0  0  0  0  0  0  0  0  0  0
  2  1  1  6
  3  2  1  0
  3  4  1  1
  5  4  1  0
  6  5  1  0
  7  3  1  0
  8  7  1  0
  8  6  1  0
  9  8  1  0
 10  9  1  0
 11  7  1  0
 12 11  1  0
 12 10  1  0
 12 13  1  6
 14  2  1  0
 15 14  1  0
 16 15  1  0
 17 15  1  0
 17  3  1  0
 18 14  1  1
 19 18  1  0
 20 19  1  0
 21 20  1  0
 22 21  1  0
 23 22  1  0
 24 23  1  0
 24 19  1  0
 25 24  1  0
 26 25  1  0
 27 26  1  0
 27 18  1  0
M  END
$$$$
