
     RDKit          3D

 30 34  0  0  0  0  0  0  0  0999 V2000
    8.4660    1.0590   21.3740 O   0  0  0  0  0  0  0  0  0  0  0  0
    8.2390   -0.1460   21.2830 C   0  0  0  0  0  0  0  0  0  0  0  0
    7.5510   -0.6880   20.2600 N   0  0  0  0  0  0  0  0  0  0  0  0
    6.5420   -0.1460   19.4350 C   0  0  0  0  0  0  0  0  0  0  0  0
    5.5740    0.7940   19.9300 C   0  0  0  0  0  0  0  0  0  0  0  0
    5.2140    0.9150   21.2970 C   0  0  0  0  0  0  0  0  0  0  0  0
    4.1980    1.7410   21.6890 C   0  0  0  0  0  0  0  0  0  0  0  0
    3.4910    2.4880   20.7570 C   0  0  0  0  0  0  0  0  0  0  0  0
    3.8000    2.4120   19.4300 C   0  0  0  0  0  0  0  0  0  0  0  0
    4.8430    1.5620   18.9800 C   0  0  0  0  0  0  0  0  0  0  0  0
    5.1360    1.3650   17.6100 C   0  0  0  0  0  0  0  0  0  0  0  0
    6.0100    0.4860   17.1530 N   0  0  0  0  0  0  0  0  0  0  0  0
    6.6680   -0.2550   18.0510 C   0  0  0  0  0  0  0  0  0  0  0  0
    8.8450   -1.1650   22.2500 C   0  0  1  0  0  0  0  0  0  0  0  0
   10.2490   -0.7380   22.6280 C   0  0  0  0  0  0  0  0  0  0  0  0
   10.4370    0.2190   23.6330 C   0  0  0  0  0  0  0  0  0  0  0  0
   11.7130    0.6880   23.9350 C   0  0  0  0  0  0  0  0  0  0  0  0
   12.8110    0.1660   23.2730 C   0  0  0  0  0  0  0  0  0  0  0  0
   11.3630   -1.2670   21.9810 C   0  0  0  0  0  0  0  0  0  0  0  0
   12.6240   -0.8140   22.3190 C   0  0  0  0  0  0  0  0  0  0  0  0
   14.0100   -1.5000   21.5170 Cl  0  0  0  0  0  0  0  0  0  0  0  0
    8.0070   -1.2980   23.5390 C   0  0  0  0  0  0  0  0  0  0  0  0
    7.9950    0.0090   24.3350 C   0  0  0  0  0  0  0  0  0  0  0  0
    9.3180    0.6410   24.4370 N   0  0  0  0  0  0  0  0  0  0  0  0
    9.3720    1.8590   25.2260 C   0  0  0  0  0  0  0  0  0  0  0  0
    9.7590    1.5850   26.6440 C   0  0  0  0  0  0  0  0  0  0  0  0
   10.6500    0.6830   27.0560 N   0  0  0  0  0  0  0  0  0  0  0  0
   10.7340    0.7170   28.4210 N   0  0  0  0  0  0  0  0  0  0  0  0
    9.8810    1.6480   28.7860 C   0  0  0  0  0  0  0  0  0  0  0  0
    9.2340    2.2360   27.7470 N   0  0  0  0  0  0  0  0  0  0  0  0
  2  1  2  0
  3  2  1  0
  4  3  1  0
  5  4  1  0
  6  5  2  0
  7  6  1  0
  8  7  2  0
  9  8  1  0
 10  9  2  0
 10  5  1  0
 11 10  1  0
 12 11  2  0
 13 12  1  0
 13  4  2  0
 14  2  1  6
 15 14  1  0
 16 15  1  0
 17 16  2  0
 18 17  1  0
 19 15  2  0
 20 19  1  0
 20 18  2  0
 21 20  1  0
 22 14  1  0
 23 22  1  0
 24 23  1  0
 24 16  1  0
 25 24  1  0
 26 25  1  0
 27 26  1  0
 28 27  1  0
 29 28  2  0
 30 26  2  0
 30 29  1  0
M  END
> <BADATOMS>
24;25;26;27;28;29
> <BADCOMMENTS>
Weak Density;Weak Density;Weak Density;Weak Density;Weak Density;Weak Density
> <BADATOMNAMES>
[HET]1.C25;[HET]1.C26;[HET]1.N27;[HET]1.N28;[HET]1.C29;[HET]1.N30