
     RDKit          3D

 21 22  0  0  0  0  0  0  0  0999 V2000
   13.9840   -1.4220   21.3930 Cl  0  0  0  0  0  0  0  0  0  0  0  0
   12.6720   -0.7220   22.3010 C   0  0  0  0  0  0  0  0  0  0  0  0
   12.9360    0.2940   23.1970 C   0  0  0  0  0  0  0  0  0  0  0  0
   11.8790    0.8580   23.8910 C   0  0  0  0  0  0  0  0  0  0  0  0
   10.5820    0.4220   23.6660 C   0  0  0  0  0  0  0  0  0  0  0  0
   11.3870   -1.1760   22.0750 C   0  0  0  0  0  0  0  0  0  0  0  0
   10.3190   -0.5830   22.7420 C   0  0  0  0  0  0  0  0  0  0  0  0
    8.8980   -0.9620   22.3920 C   0  0  0  0  0  0  0  0  0  0  0  0
    8.2890   -0.0280   21.3640 C   0  0  0  0  0  0  0  0  0  0  0  0
    8.8360    1.0270   21.0380 O   0  0  0  0  0  0  0  0  0  0  0  0
    7.1250   -0.4660   20.8310 N   0  0  0  0  0  0  0  0  0  0  0  0
    6.4570    0.0990   19.7200 C   0  0  0  0  0  0  0  0  0  0  0  0
    5.3730    0.9660   19.9120 C   0  0  0  0  0  0  0  0  0  0  0  0
    4.8630    1.2720   21.2950 C   0  0  2  0  0  0  0  0  0  0  0  0
    3.7820    2.0620   21.2910 F   0  0  0  0  0  0  0  0  0  0  0  0
    5.7720    1.9070   22.0420 F   0  0  0  0  0  0  0  0  0  0  0  0
    4.4970    0.1750   21.9600 F   0  0  0  0  0  0  0  0  0  0  0  0
    6.8850   -0.1400   18.4160 C   0  0  0  0  0  0  0  0  0  0  0  0
    6.3220    0.4320   17.3470 N   0  0  0  0  0  0  0  0  0  0  0  0
    5.2960    1.2630   17.5580 C   0  0  0  0  0  0  0  0  0  0  0  0
    4.7810    1.5630   18.8070 C   0  0  0  0  0  0  0  0  0  0  0  0
  2  1  1  0
  3  2  2  0
  4  3  1  0
  5  4  2  0
  6  2  1  0
  7  5  1  0
  7  6  2  0
  8  7  1  0
  9  8  1  0
 10  9  2  0
 11  9  1  0
 12 11  1  0
 13 12  2  0
 14 13  1  0
 14 15  1  6
 16 14  1  0
 17 14  1  0
 18 12  1  0
 19 18  2  0
 20 19  1  0
 21 20  2  0
 21 13  1  0
M  END
