
     RDKit          3D

 27 31  0  0  0  0  0  0  0  0999 V2000
    9.3570    1.2710   21.1110 O   0  0  0  0  0  0  0  0  0  0  0  0
    8.9080    0.3120   21.7150 C   0  0  0  0  0  0  0  0  0  0  0  0
    9.6110   -0.2130   22.9660 C   0  0  2  0  0  0  0  0  0  0  0  0
    8.9800    0.5000   24.1860 C   0  0  0  0  0  0  0  0  0  0  0  0
    9.5210    1.8980   24.3840 C   0  0  0  0  0  0  0  0  0  0  0  0
   10.9670    1.8700   24.4450 N   0  0  0  0  0  0  0  0  0  0  0  0
   11.1260    0.0410   22.8830 C   0  0  2  0  0  0  0  0  0  0  0  0
   11.7090    1.1110   23.5800 C   0  0  0  0  0  0  0  0  0  0  0  0
   13.0590    1.4070   23.4020 C   0  0  0  0  0  0  0  0  0  0  0  0
   13.8310    0.6480   22.5420 C   0  0  0  0  0  0  0  0  0  0  0  0
   11.9220   -0.7480   22.0510 C   0  0  0  0  0  0  0  0  0  0  0  0
   13.2560   -0.4210   21.8850 C   0  0  1  0  0  0  0  0  0  0  0  0
   14.2190   -1.3450   20.7660 Cl  0  0  0  0  0  0  0  0  0  0  0  0
    7.7370   -0.2920   21.3310 N   0  0  0  0  0  0  0  0  0  0  0  0
    7.3950   -1.6900   21.6380 C   0  0  0  0  0  0  0  0  0  0  0  0
    7.9100   -2.1060   22.9990 C   0  0  0  0  0  0  0  0  0  0  0  0
    9.3790   -1.7310   23.1420 C   0  0  0  0  0  0  0  0  0  0  0  0
    7.0030    0.1810   20.1920 C   0  0  0  0  0  0  0  0  0  0  0  0
    5.8270    0.9790   20.3290 C   0  0  0  0  0  0  0  0  0  0  0  0
    5.2890    1.3900   21.5770 C   0  0  0  0  0  0  0  0  0  0  0  0
    4.1690    2.1710   21.6370 C   0  0  0  0  0  0  0  0  0  0  0  0
    3.5290    2.5800   20.4770 C   0  0  0  0  0  0  0  0  0  0  0  0
    4.0060    2.2100   19.2510 C   0  0  0  0  0  0  0  0  0  0  0  0
    5.1650    1.4040   19.1400 C   0  0  0  0  0  0  0  0  0  0  0  0
    5.7190    1.0120   17.8970 C   0  0  0  0  0  0  0  0  0  0  0  0
    6.8110    0.2700   17.7730 N   0  0  0  0  0  0  0  0  0  0  0  0
    7.4180   -0.1310   18.8990 C   0  0  0  0  0  0  0  0  0  0  0  0
  2  1  1  0
  3  2  1  0
  3  4  1  1
  5  4  1  0
  6  5  1  0
  7  3  1  0
  8  7  1  0
  8  6  1  0
  9  8  1  0
 10  9  1  0
  7 11  1  6
 12 11  1  0
 12 10  1  0
 12 13  1  6
 14  2  1  0
 15 14  1  0
 16 15  1  0
 17 16  1  0
 17  3  1  0
 18 14  1  0
 19 18  1  0
 20 19  1  0
 21 20  1  0
 22 21  1  0
 23 22  1  0
 24 23  1  0
 24 19  1  0
 25 24  1  0
 26 25  1  0
 27 26  1  0
 27 18  1  0
M  END
$$$$
