
     RDKit          3D

 29 32  0  0  0  0  0  0  0  0999 V2000
    9.2640    0.9690   21.1230 O   0  0  0  0  0  0  0  0  0  0  0  0
    8.8990   -0.0640   21.6670 C   0  0  0  0  0  0  0  0  0  0  0  0
    7.9000   -0.9770   20.9790 C   0  0  0  0  0  0  0  0  0  0  0  0
    7.0420   -0.2460   19.9660 C   0  0  0  0  0  0  0  0  0  0  0  0
    5.9090    0.5080   20.3760 C   0  0  0  0  0  0  0  0  0  0  0  0
    5.5030    0.6300   21.7310 C   0  0  0  0  0  0  0  0  0  0  0  0
    4.4220    1.3910   22.0750 C   0  0  0  0  0  0  0  0  0  0  0  0
    3.6970    2.0680   21.1070 C   0  0  0  0  0  0  0  0  0  0  0  0
    4.0370    1.9710   19.7880 C   0  0  0  0  0  0  0  0  0  0  0  0
    5.1470    1.1860   19.3870 C   0  0  0  0  0  0  0  0  0  0  0  0
    5.5580    1.0470   18.0410 C   0  0  0  0  0  0  0  0  0  0  0  0
    6.6180    0.3460   17.6600 N   0  0  0  0  0  0  0  0  0  0  0  0
    7.3290   -0.2710   18.6150 C   0  0  0  0  0  0  0  0  0  0  0  0
    9.3780   -0.4420   22.8890 N   0  0  0  0  0  0  0  0  0  0  0  0
   10.4020    0.3940   23.5080 C   0  0  0  0  0  0  0  0  0  0  0  0
   11.8020   -0.0140   23.1280 C   0  0  0  0  0  0  0  0  0  0  0  0
   12.0540   -0.9300   22.1460 C   0  0  0  0  0  0  0  0  0  0  0  0
   13.7140   -1.2760   21.9840 S   0  0  0  0  0  0  0  0  0  0  0  0
   14.1150   -0.1670   23.2440 C   0  0  0  0  0  0  0  0  0  0  0  0
   12.9990    0.4280   23.7530 C   0  0  0  0  0  0  0  0  0  0  0  0
    8.9600   -1.6250   23.5860 C   0  0  0  0  0  0  0  0  0  0  0  0
    8.0680   -1.5280   24.6500 C   0  0  0  0  0  0  0  0  0  0  0  0
    7.7970   -2.6300   25.4430 C   0  0  0  0  0  0  0  0  0  0  0  0
    9.5460   -2.8570   23.3020 C   0  0  0  0  0  0  0  0  0  0  0  0
    9.2710   -3.9650   24.0880 C   0  0  0  0  0  0  0  0  0  0  0  0
    8.4060   -3.8700   25.1880 C   0  0  0  0  0  0  0  0  0  0  0  0
    8.1960   -4.9570   26.0240 N   0  0  0  0  0  0  0  0  0  0  0  0
    9.2540   -5.9330   26.2320 C   0  0  0  0  0  0  0  0  0  0  0  0
    7.3170   -4.8520   27.1810 C   0  0  0  0  0  0  0  0  0  0  0  0
  2  1  2  0
  3  2  1  0
  4  3  1  0
  5  4  1  0
  6  5  2  0
  7  6  1  0
  8  7  2  0
  9  8  1  0
 10  9  2  0
 10  5  1  0
 11 10  1  0
 12 11  2  0
 13 12  1  0
 13  4  2  0
 14  2  1  0
 15 14  1  0
 16 15  1  0
 17 16  2  0
 18 17  1  0
 19 18  1  0
 20 19  2  0
 20 16  1  0
 21 14  1  0
 22 21  2  0
 23 22  1  0
 24 21  1  0
 25 24  2  0
 26 25  1  0
 26 23  2  0
 27 26  1  0
 28 27  1  0
 29 27  1  0
M  END
