
     RDKit          3D

 24 27  0  0  0  0  0  0  0  0999 V2000
    8.9570    0.8840   21.0910 O   0  0  0  0  0  0  0  0  0  0  0  0
    8.4010   -0.1550   21.4450 C   0  0  0  0  0  0  0  0  0  0  0  0
    8.8260   -0.9190   22.6990 C   0  0  2  0  0  0  0  0  0  0  0  0
    7.9870   -0.4530   23.8980 C   0  0  0  0  0  0  0  0  0  0  0  0
    8.3510    0.9150   24.2810 N   0  0  0  0  0  0  0  0  0  0  0  0
    9.7170    0.9890   24.7980 C   0  0  0  0  0  0  0  0  0  0  0  0
   10.2980   -0.6240   22.9200 C   0  0  0  0  0  0  0  0  0  0  0  0
   10.7080    0.3080   23.8880 C   0  0  0  0  0  0  0  0  0  0  0  0
   12.0680    0.5830   24.0300 C   0  0  0  0  0  0  0  0  0  0  0  0
   13.0110   -0.0470   23.2390 C   0  0  0  0  0  0  0  0  0  0  0  0
   11.2550   -1.2660   22.1350 C   0  0  0  0  0  0  0  0  0  0  0  0
   12.5900   -0.9590   22.2990 C   0  0  0  0  0  0  0  0  0  0  0  0
   13.7600   -1.7000   21.2480 Cl  0  0  0  0  0  0  0  0  0  0  0  0
    7.3440   -0.6880   20.7980 N   0  0  0  0  0  0  0  0  0  0  0  0
    6.6110   -0.1140   19.7430 C   0  0  0  0  0  0  0  0  0  0  0  0
    5.5200    0.7470   20.0690 C   0  0  0  0  0  0  0  0  0  0  0  0
    5.0610    0.9730   21.3940 C   0  0  0  0  0  0  0  0  0  0  0  0
    4.0370    1.8410   21.6440 C   0  0  0  0  0  0  0  0  0  0  0  0
    3.4150    2.5200   20.6030 C   0  0  0  0  0  0  0  0  0  0  0  0
    3.8120    2.3300   19.3100 C   0  0  0  0  0  0  0  0  0  0  0  0
    4.8740    1.4410   19.0080 C   0  0  0  0  0  0  0  0  0  0  0  0
    5.3510    1.2200   17.6920 C   0  0  0  0  0  0  0  0  0  0  0  0
    6.3590    0.4140   17.3900 N   0  0  0  0  0  0  0  0  0  0  0  0
    6.9580   -0.2330   18.3970 C   0  0  0  0  0  0  0  0  0  0  0  0
  2  1  2  0
  3  2  1  6
  4  3  1  0
  5  4  1  0
  6  5  1  0
  7  3  1  0
  8  7  2  0
  8  6  1  0
  9  8  1  0
 10  9  2  0
 11  7  1  0
 12 11  2  0
 12 10  1  0
 13 12  1  0
 14  2  1  0
 15 14  1  0
 16 15  1  0
 17 16  2  0
 18 17  1  0
 19 18  2  0
 20 19  1  0
 21 20  2  0
 21 16  1  0
 22 21  1  0
 23 22  2  0
 24 23  1  0
 24 15  2  0
M  END
