
     RDKit          3D

 23 24  0  0  0  0  0  0  0  0999 V2000
    8.9630    0.6150   20.9430 O   0  0  0  0  0  0  0  0  0  0  0  0
    8.3290   -0.3880   21.2650 C   0  0  0  0  0  0  0  0  0  0  0  0
    7.1210   -0.7010   20.7580 N   0  0  0  0  0  0  0  0  0  0  0  0
    6.4920    0.0070   19.7060 C   0  0  0  0  0  0  0  0  0  0  0  0
    5.3760    0.8110   19.9790 C   0  0  0  0  0  0  0  0  0  0  0  0
    4.8380    0.9810   21.3780 C   0  0  0  0  0  0  0  0  0  0  0  0
    4.8210    1.5150   18.9140 C   0  0  0  0  0  0  0  0  0  0  0  0
    5.3840    1.4110   17.6590 C   0  0  0  0  0  0  0  0  0  0  0  0
    6.4540    0.6540   17.3880 N   0  0  0  0  0  0  0  0  0  0  0  0
    6.9880   -0.0350   18.4030 C   0  0  0  0  0  0  0  0  0  0  0  0
    8.8640   -1.3920   22.2680 C   0  0  0  0  0  0  0  0  0  0  0  0
   10.2330   -0.9660   22.7460 C   0  0  0  0  0  0  0  0  0  0  0  0
   11.3790   -1.4710   22.1430 C   0  0  0  0  0  0  0  0  0  0  0  0
   12.6170   -0.9960   22.5150 C   0  0  0  0  0  0  0  0  0  0  0  0
   14.0390   -1.6420   21.7320 Cl  0  0  0  0  0  0  0  0  0  0  0  0
   12.7580   -0.0400   23.5010 C   0  0  0  0  0  0  0  0  0  0  0  0
   11.6270    0.4410   24.1430 C   0  0  0  0  0  0  0  0  0  0  0  0
   10.3730   -0.0030   23.7450 C   0  0  0  0  0  0  0  0  0  0  0  0
    9.1980    0.5550   24.1800 O   0  0  0  0  0  0  0  0  0  0  0  0
    8.8650    0.4830   25.5770 C   0  0  0  0  0  0  0  0  0  0  0  0
    7.3730    0.6750   25.7070 C   0  0  0  0  0  0  0  0  0  0  0  0
    6.5590   -0.4570   25.0780 C   0  0  0  0  0  0  0  0  0  0  0  0
    5.0640   -0.2890   25.2300 C   0  0  0  0  0  0  0  0  0  0  0  0
  2  1  2  0
  3  2  1  0
  4  3  1  0
  5  4  2  0
  6  5  1  0
  7  5  1  0
  8  7  2  0
  9  8  1  0
 10  9  2  0
 10  4  1  0
 11  2  1  0
 12 11  1  0
 13 12  2  0
 14 13  1  0
 15 14  1  0
 16 14  2  0
 17 16  1  0
 18 12  1  0
 18 17  2  0
 19 18  1  0
 20 19  1  0
 21 20  1  0
 22 21  1  0
 23 22  1  0
M  END
