
     RDKit          3D

 24 26  0  0  0  0  0  0  0  0999 V2000
    7.1230   -7.4150   30.1980 O   0  0  0  0  0  0  0  0  0  0  0  0
    6.8010   -6.8080   29.1840 C   0  0  0  0  0  0  0  0  0  0  0  0
    7.6860   -6.6190   28.1880 N   0  0  0  0  0  0  0  0  0  0  0  0
    7.4760   -5.9310   27.0100 N   0  0  0  0  0  0  0  0  0  0  0  0
    5.4760   -6.2200   28.9740 C   0  0  0  0  0  0  0  0  0  0  0  0
    5.2090   -5.5220   27.7840 C   0  0  0  0  0  0  0  0  0  0  0  0
    3.9310   -4.9980   27.5700 C   0  0  0  0  0  0  0  0  0  0  0  0
    2.9430   -5.1680   28.5270 C   0  0  0  0  0  0  0  0  0  0  0  0
    3.2130   -5.8470   29.7000 C   0  0  0  0  0  0  0  0  0  0  0  0
    4.4750   -6.3710   29.9320 C   0  0  0  0  0  0  0  0  0  0  0  0
    6.2920   -5.3900   26.7960 C   0  0  0  0  0  0  0  0  0  0  0  0
    6.2480   -4.6360   25.4800 C   0  0  0  0  0  0  0  0  0  0  0  0
    5.3410   -3.8390   25.2300 O   0  0  0  0  0  0  0  0  0  0  0  0
    7.2540   -4.9020   24.6220 N   0  0  0  0  0  0  0  0  0  0  0  0
    7.2850   -4.2310   23.4120 N   0  0  0  0  0  0  0  0  0  0  0  0
    7.8630   -3.0190   23.1850 C   0  0  0  0  0  0  0  0  0  0  0  0
    8.5610   -2.2240   24.2370 C   0  0  0  0  0  0  0  0  0  0  0  0
    6.7190   -4.7510   22.2770 C   0  0  0  0  0  0  0  0  0  0  0  0
    5.9950   -6.0530   22.2360 C   0  0  0  0  0  0  0  0  0  0  0  0
    6.9520   -3.8160   21.2740 C   0  0  0  0  0  0  0  0  0  0  0  0
    7.6680   -2.7340   21.8570 C   0  0  0  0  0  0  0  0  0  0  0  0
    6.5590   -3.8990   19.8590 C   0  0  0  0  0  0  0  0  0  0  0  0
    5.8080   -4.7910   19.4880 O   0  0  0  0  0  0  0  0  0  0  0  0
    7.1230   -2.8790   18.8950 C   0  0  0  0  0  0  0  0  0  0  0  0
  2  1  1  0
  3  2  1  0
  4  3  1  0
  5  2  1  0
  6  5  1  0
  7  6  1  0
  8  7  1  0
  9  8  1  0
 10  9  1  0
 10  5  1  0
 11  6  1  0
 11  4  1  0
 12 11  1  0
 13 12  1  0
 14 12  1  0
 15 14  1  0
 16 15  1  0
 17 16  1  0
 18 15  1  0
 19 18  1  0
 20 18  1  0
 21 20  1  0
 21 16  1  0
 22 20  1  0
 23 22  1  0
 24 22  1  0
M  END
