
     RDKit          3D

 21 23  0  0  0  0  0  0  0  0999 V2000
    9.0030    1.0090   21.1060 O   0  0  0  0  0  0  0  0  0  0  0  0
    8.4850   -0.0590   21.4360 C   0  0  0  0  0  0  0  0  0  0  0  0
    8.9960   -0.8690   22.6110 C   0  0  0  0  0  0  0  0  0  0  0  0
   10.4480   -0.5900   22.9180 C   0  0  0  0  0  0  0  0  0  0  0  0
   11.4560   -1.1290   22.1300 C   0  0  0  0  0  0  0  0  0  0  0  0
   12.7830   -0.7960   22.3380 C   0  0  0  0  0  0  0  0  0  0  0  0
   10.8040    0.2550   23.9610 C   0  0  0  0  0  0  0  0  0  0  0  0
   12.1270    0.5930   24.1890 C   0  0  0  0  0  0  0  0  0  0  0  0
   13.0790    0.0800   23.3470 C   0  0  0  0  0  0  0  0  0  0  0  0
   14.3550    0.5240   23.4660 F   0  0  0  0  0  0  0  0  0  0  0  0
    7.4210   -0.6030   20.8060 N   0  0  0  0  0  0  0  0  0  0  0  0
    6.6470   -0.0460   19.7680 C   0  0  0  0  0  0  0  0  0  0  0  0
    5.5130    0.7520   20.1180 C   0  0  0  0  0  0  0  0  0  0  0  0
    5.0670    0.9510   21.4530 C   0  0  0  0  0  0  0  0  0  0  0  0
    3.9980    1.7560   21.7230 C   0  0  0  0  0  0  0  0  0  0  0  0
    3.3190    2.4010   20.6980 C   0  0  0  0  0  0  0  0  0  0  0  0
    3.7050    2.2380   19.3970 C   0  0  0  0  0  0  0  0  0  0  0  0
    4.8100    1.4120   19.0710 C   0  0  0  0  0  0  0  0  0  0  0  0
    5.2790    1.2310   17.7470 C   0  0  0  0  0  0  0  0  0  0  0  0
    6.3300    0.4950   17.4230 N   0  0  0  0  0  0  0  0  0  0  0  0
    6.9780   -0.1300   18.4150 C   0  0  0  0  0  0  0  0  0  0  0  0
  2  1  2  0
  3  2  1  0
  4  3  1  0
  5  4  2  0
  6  5  1  0
  7  4  1  0
  8  7  2  0
  9  8  1  0
  9  6  2  0
 10  9  1  0
 11  2  1  0
 12 11  1  0
 13 12  1  0
 14 13  2  0
 15 14  1  0
 16 15  2  0
 17 16  1  0
 18 17  2  0
 18 13  1  0
 19 18  1  0
 20 19  2  0
 21 20  1  0
 21 12  2  0
M  END
> <BADATOMS>
2;16;15;14
> <BADCOMMENTS>
Weak Density;Weak Density;Weak Density;Weak Density
> <BADATOMNAMES>
[HET]1.C3;[HET]1.C17;[HET]1.C16;[HET]1.C15