
     RDKit          3D

 32 36  0  0  0  0  0  0  0  0999 V2000
    9.1230    1.3100   21.2980 O   0  0  0  0  0  0  0  0  0  0  0  0
    8.6680    0.2630   21.7280 C   0  0  0  0  0  0  0  0  0  0  0  0
    7.6080   -0.4530   21.1860 N   0  0  0  0  0  0  0  0  0  0  0  0
    6.8090   -0.0140   20.0440 C   0  0  1  0  0  0  0  0  0  0  0  0
    5.6740    0.8250   20.2720 C   0  0  0  0  0  0  0  0  0  0  0  0
    5.1560    1.1450   21.5540 C   0  0  0  0  0  0  0  0  0  0  0  0
    4.0830    1.9780   21.6900 C   0  0  0  0  0  0  0  0  0  0  0  0
    3.4710    2.5370   20.5740 C   0  0  0  0  0  0  0  0  0  0  0  0
    3.9220    2.2470   19.3170 C   0  0  0  0  0  0  0  0  0  0  0  0
    5.0260    1.3810   19.1280 C   0  0  0  0  0  0  0  0  0  0  0  0
    5.5460    1.0460   17.8480 C   0  0  0  0  0  0  0  0  0  0  0  0
    6.6080    0.2710   17.6500 N   0  0  0  0  0  0  0  0  0  0  0  0
    7.2180   -0.2300   18.7340 C   0  0  0  0  0  0  0  0  0  0  0  0
    7.4650   -1.7310   21.7530 C   0  0  0  0  0  0  0  0  0  0  0  0
    6.5630   -2.5000   21.5170 O   0  0  0  0  0  0  0  0  0  0  0  0
    8.6270   -1.9300   22.6980 C   0  0  0  0  0  0  0  0  0  0  0  0
    9.1690   -0.5100   22.9550 C   0  0  1  0  0  0  0  0  0  0  0  0
   10.6940   -0.3990   23.0590 C   0  0  1  0  0  0  0  0  0  0  0  0
   11.5400   -1.1990   22.2860 C   0  0  0  0  0  0  0  0  0  0  0  0
   12.8910   -0.9100   22.2510 C   0  0  1  0  0  0  0  0  0  0  0  0
   13.9270   -1.8370   21.2020 Cl  0  0  0  0  0  0  0  0  0  0  0  0
   13.4350    0.1200   22.9790 C   0  0  0  0  0  0  0  0  0  0  0  0
   12.6060    0.8800   23.7830 C   0  0  0  0  0  0  0  0  0  0  0  0
   11.2410    0.6350   23.8390 C   0  0  0  0  0  0  0  0  0  0  0  0
   10.3900    1.4830   24.7570 C   0  0  0  0  0  0  0  0  0  0  0  0
    8.4750    0.1470   24.1800 C   0  0  0  0  0  0  0  0  0  0  0  0
    8.9770    1.5090   24.3510 N   0  0  0  0  0  0  0  0  0  0  0  0
    8.1820    2.3920   25.2000 C   0  0  0  0  0  0  0  0  0  0  0  0
    7.3430    3.4010   24.4350 C   0  0  0  0  0  0  0  0  0  0  0  0
    6.3280    3.8790   24.9350 O   0  0  0  0  0  0  0  0  0  0  0  0
    7.7500    3.7170   23.2090 N   0  0  0  0  0  0  0  0  0  0  0  0
    6.9630    4.5520   22.3210 C   0  0  0  0  0  0  0  0  0  0  0  0
  2  1  1  0
  3  2  1  0
  4  3  1  1
  5  4  1  0
  6  5  1  0
  7  6  1  0
  8  7  1  0
  9  8  1  0
 10  9  1  0
 10  5  1  0
 11 10  1  0
 12 11  1  0
 13 12  1  0
 13  4  1  0
 14  3  1  0
 15 14  1  0
 16 14  1  0
 17  2  1  0
 17 16  1  6
 18 17  1  0
 18 19  1  6
 20 19  1  0
 20 21  1  6
 22 20  1  0
 23 22  1  0
 24 18  1  0
 24 23  1  0
 25 24  1  0
 26 17  1  0
 27 26  1  0
 27 25  1  0
 28 27  1  0
 29 28  1  0
 30 29  1  0
 31 29  1  0
 32 31  1  0
M  END
$$$$
