
     RDKit          3D

 27 30  0  0  0  0  0  0  0  0999 V2000
    9.0520    1.2010   21.0640 O   0  0  0  0  0  0  0  0  0  0  0  0
    8.5240    0.1850   21.4920 C   0  0  0  0  0  0  0  0  0  0  0  0
    9.0430   -0.5240   22.7860 C   0  0  1  0  0  0  0  0  0  0  0  0
   10.5200   -0.2910   23.0050 C   0  0  1  0  0  0  0  0  0  0  0  0
   11.4610   -0.8460   22.1450 C   0  0  0  0  0  0  0  0  0  0  0  0
   12.7960   -0.5070   22.2640 C   0  0  0  0  0  0  0  0  0  0  0  0
   13.9360   -1.2330   21.1830 Cl  0  0  0  0  0  0  0  0  0  0  0  0
   13.2100    0.3940   23.2330 C   0  0  0  0  0  0  0  0  0  0  0  0
   14.8750    0.8620   23.3540 Cl  0  0  0  0  0  0  0  0  0  0  0  0
   12.2960    0.9580   24.1040 C   0  0  0  0  0  0  0  0  0  0  0  0
   10.9630    0.6150   23.9780 C   0  0  0  0  0  0  0  0  0  0  0  0
   10.1150    1.2200   24.8730 O   0  0  0  0  0  0  0  0  0  0  0  0
    8.7490    1.3490   24.4250 C   0  0  0  0  0  0  0  0  0  0  0  0
    8.1890    0.0280   23.9380 C   0  0  0  0  0  0  0  0  0  0  0  0
    8.7880   -1.9100   22.5130 O   0  0  0  0  0  0  0  0  0  0  0  0
    9.0010   -2.8380   23.5890 C   0  0  0  0  0  0  0  0  0  0  0  0
    7.4580   -0.3980   20.9050 N   0  0  0  0  0  0  0  0  0  0  0  0
    6.7200    0.1050   19.8110 C   0  0  0  0  0  0  0  0  0  0  0  0
    5.5350    0.8560   20.0900 C   0  0  0  0  0  0  0  0  0  0  0  0
    5.0740    1.1410   21.4020 C   0  0  0  0  0  0  0  0  0  0  0  0
    3.9520    1.8970   21.6040 C   0  0  0  0  0  0  0  0  0  0  0  0
    3.2330    2.3990   20.5260 C   0  0  0  0  0  0  0  0  0  0  0  0
    3.6320    2.1460   19.2430 C   0  0  0  0  0  0  0  0  0  0  0  0
    4.7940    1.3720   18.9890 C   0  0  0  0  0  0  0  0  0  0  0  0
    5.2820    1.1120   17.6840 C   0  0  0  0  0  0  0  0  0  0  0  0
    6.3950    0.4350   17.4270 N   0  0  0  0  0  0  0  0  0  0  0  0
    7.0770   -0.0540   18.4720 C   0  0  0  0  0  0  0  0  0  0  0  0
  2  1  1  0
  3  2  1  0
  4  3  1  0
  4  5  1  6
  6  5  1  0
  7  6  1  0
  8  6  1  0
  9  8  1  0
 10  8  1  0
 11  4  1  0
 11 10  1  0
 12 11  1  0
 13 12  1  0
 14 13  1  0
 14  3  1  0
  3 15  1  6
 16 15  1  0
 17  2  1  0
 18 17  1  0
 19 18  1  0
 20 19  1  0
 21 20  1  0
 22 21  1  0
 23 22  1  0
 24 23  1  0
 24 19  1  0
 25 24  1  0
 26 25  1  0
 27 26  1  0
 27 18  1  0
M  END
$$$$
