
     RDKit          3D

 21 23  0  0  0  0  0  0  0  0999 V2000
   14.0990   -1.4320   21.4400 Cl  0  0  0  0  0  0  0  0  0  0  0  0
   12.8010   -0.8230   22.4260 C   0  0  0  0  0  0  0  0  0  0  0  0
   13.0810    0.1010   23.4130 C   0  0  0  0  0  0  0  0  0  0  0  0
   12.0330    0.6030   24.1660 C   0  0  0  0  0  0  0  0  0  0  0  0
   10.7310    0.1960   23.9110 C   0  0  0  0  0  0  0  0  0  0  0  0
   11.5110   -1.2460   22.1680 C   0  0  0  0  0  0  0  0  0  0  0  0
   10.4530   -0.7160   22.9000 C   0  0  2  0  0  0  0  0  0  0  0  0
    9.0260   -1.0730   22.5450 C   0  0  0  0  0  0  0  0  0  0  0  0
    8.4170   -0.1570   21.5020 C   0  0  0  0  0  0  0  0  0  0  0  0
    8.9240    0.9300   21.2170 O   0  0  0  0  0  0  0  0  0  0  0  0
    7.2930   -0.6380   20.9200 N   0  0  0  0  0  0  0  0  0  0  0  0
    6.5780   -0.0340   19.8570 C   0  0  2  0  0  0  0  0  0  0  0  0
    6.9750   -0.2470   18.5390 C   0  0  0  0  0  0  0  0  0  0  0  0
    6.4100    0.3590   17.4860 N   0  0  0  0  0  0  0  0  0  0  0  0
    5.4060    1.2130   17.7190 C   0  0  0  0  0  0  0  0  0  0  0  0
    5.5120    0.8520   20.0720 C   0  0  0  0  0  0  0  0  0  0  0  0
    4.8600    1.2720   21.2000 N   0  0  0  0  0  0  0  0  0  0  0  0
    5.0890    0.9230   22.5930 C   0  0  0  0  0  0  0  0  0  0  0  0
    4.8950    1.5130   18.9860 C   0  0  0  0  0  0  0  0  0  0  0  0
    3.8860    2.3060   19.5890 C   0  0  0  0  0  0  0  0  0  0  0  0
    3.8660    2.1580   20.8970 N   0  0  0  0  0  0  0  0  0  0  0  0
  2  1  1  0
  3  2  1  0
  4  3  1  0
  5  4  1  0
  6  2  1  0
  7  5  1  0
  7  6  1  0
  7  8  1  6
  9  8  1  0
 10  9  1  0
 11  9  1  0
 12 11  1  1
 13 12  1  0
 14 13  1  0
 15 14  1  0
 16 12  1  0
 17 16  1  0
 18 17  1  0
 19 15  1  0
 19 16  1  0
 20 19  1  0
 21 20  1  0
 21 17  1  0
M  END
$$$$
