
     RDKit          3D

 23 24  0  0  0  0  0  0  0  0999 V2000
    8.8900    0.9170   21.0510 O   0  0  0  0  0  0  0  0  0  0  0  0
    8.3870   -0.1560   21.3620 C   0  0  0  0  0  0  0  0  0  0  0  0
    7.3360   -0.6940   20.7160 N   0  0  0  0  0  0  0  0  0  0  0  0
    6.5950   -0.0410   19.7080 C   0  0  0  0  0  0  0  0  0  0  0  0
    5.4560    0.7100   20.0560 C   0  0  0  0  0  0  0  0  0  0  0  0
    5.0000    0.8540   21.4860 C   0  0  0  0  0  0  0  0  0  0  0  0
    4.7950    1.3780   19.0330 C   0  0  0  0  0  0  0  0  0  0  0  0
    5.2770    1.2970   17.7420 C   0  0  0  0  0  0  0  0  0  0  0  0
    6.3630    0.5930   17.4000 N   0  0  0  0  0  0  0  0  0  0  0  0
    6.9970   -0.0690   18.3740 C   0  0  0  0  0  0  0  0  0  0  0  0
    8.9050   -0.9790   22.5270 C   0  0  0  0  0  0  0  0  0  0  0  0
   10.3530   -0.6560   22.8210 C   0  0  0  0  0  0  0  0  0  0  0  0
   11.3700   -1.3740   22.2050 C   0  0  0  0  0  0  0  0  0  0  0  0
   12.6710   -0.9300   22.3140 C   0  0  0  0  0  0  0  0  0  0  0  0
   13.9450   -1.8640   21.5910 Cl  0  0  0  0  0  0  0  0  0  0  0  0
   12.9920    0.2260   22.9970 C   0  0  0  0  0  0  0  0  0  0  0  0
   10.6800    0.4670   23.5730 C   0  0  0  0  0  0  0  0  0  0  0  0
   11.9870    0.9370   23.6420 C   0  0  0  0  0  0  0  0  0  0  0  0
   12.3210    2.1770   24.4380 C   0  0  0  0  0  0  0  0  0  0  0  0
   11.9780    3.4650   23.8450 N   0  0  0  0  0  0  0  0  0  0  0  0
   10.8100    3.9560   23.4200 C   0  0  0  0  0  0  0  0  0  0  0  0
    9.9620    3.2500   22.8720 O   0  0  0  0  0  0  0  0  0  0  0  0
   10.5850    5.4220   23.6490 C   0  0  0  0  0  0  0  0  0  0  0  0
  2  1  2  0
  3  2  1  0
  4  3  1  0
  5  4  2  0
  6  5  1  0
  7  5  1  0
  8  7  2  0
  9  8  1  0
 10  9  2  0
 10  4  1  0
 11  2  1  0
 12 11  1  0
 13 12  2  0
 14 13  1  0
 15 14  1  0
 16 14  2  0
 17 12  1  0
 18 17  2  0
 18 16  1  0
 19 18  1  0
 20 19  1  0
 21 20  1  0
 22 21  2  0
 23 21  1  0
M  END
