
     RDKit          3D

 27 30  0  0  0  0  0  0  0  0999 V2000
    9.2340    1.2570   21.2090 O   0  0  0  0  0  0  0  0  0  0  0  0
    8.6980    0.2770   21.7090 C   0  0  0  0  0  0  0  0  0  0  0  0
    9.2870   -0.3910   23.0050 C   0  0  1  0  0  0  0  0  0  0  0  0
   10.7950   -0.2660   23.1050 C   0  0  0  0  0  0  0  0  0  0  0  0
   11.6230   -0.9150   22.1910 C   0  0  0  0  0  0  0  0  0  0  0  0
   12.9890   -0.8430   22.3570 C   0  0  0  0  0  0  0  0  0  0  0  0
   13.7810   -1.4250   21.4170 F   0  0  0  0  0  0  0  0  0  0  0  0
   13.6010   -0.1820   23.3900 C   0  0  0  0  0  0  0  0  0  0  0  0
   12.7800    0.4360   24.2950 C   0  0  0  0  0  0  0  0  0  0  0  0
   13.3290    1.0930   25.3440 F   0  0  0  0  0  0  0  0  0  0  0  0
   11.3980    0.4140   24.1850 C   0  0  0  0  0  0  0  0  0  0  0  0
   10.6800    1.0390   25.1700 O   0  0  0  0  0  0  0  0  0  0  0  0
    9.3870    0.4630   25.4010 C   0  0  0  0  0  0  0  0  0  0  0  0
    8.5690    0.3980   24.1250 C   0  0  0  0  0  0  0  0  0  0  0  0
    9.0400   -1.8080   22.8750 O   0  0  0  0  0  0  0  0  0  0  0  0
    7.9780   -2.3930   23.6510 C   0  0  0  0  0  0  0  0  0  0  0  0
    7.5670   -0.2860   21.2200 N   0  0  0  0  0  0  0  0  0  0  0  0
    6.8220    0.1140   20.0860 C   0  0  0  0  0  0  0  0  0  0  0  0
    5.5930    0.8170   20.2900 C   0  0  0  0  0  0  0  0  0  0  0  0
    5.0170    1.0460   21.5670 C   0  0  0  0  0  0  0  0  0  0  0  0
    3.8300    1.7090   21.6940 C   0  0  0  0  0  0  0  0  0  0  0  0
    3.1600    2.1850   20.5740 C   0  0  0  0  0  0  0  0  0  0  0  0
    3.6740    1.9950   19.3220 C   0  0  0  0  0  0  0  0  0  0  0  0
    4.8970    1.2980   19.1440 C   0  0  0  0  0  0  0  0  0  0  0  0
    5.4580    1.0320   17.8710 C   0  0  0  0  0  0  0  0  0  0  0  0
    6.5850    0.3620   17.6800 N   0  0  0  0  0  0  0  0  0  0  0  0
    7.2350   -0.0800   18.7660 C   0  0  0  0  0  0  0  0  0  0  0  0
  2  1  2  0
  3  2  1  0
  4  3  1  0
  5  4  2  0
  6  5  1  0
  7  6  1  0
  8  6  2  0
  9  8  1  0
 10  9  1  0
 11  4  1  0
 11  9  2  0
 12 11  1  0
 13 12  1  0
 14 13  1  0
 14  3  1  0
  3 15  1  6
 16 15  1  0
 17  2  1  0
 18 17  1  0
 19 18  1  0
 20 19  2  0
 21 20  1  0
 22 21  2  0
 23 22  1  0
 24 23  2  0
 24 19  1  0
 25 24  1  0
 26 25  2  0
 27 26  1  0
 27 18  2  0
M  END
