
     RDKit          3D

 28 31  0  0  0  0  0  0  0  0999 V2000
    9.0100    1.5210   21.1450 O   0  0  0  0  0  0  0  0  0  0  0  0
    8.9110    0.4440   21.7100 C   0  0  0  0  0  0  0  0  0  0  0  0
    8.2490   -0.7490   21.0170 C   0  0  0  0  0  0  0  0  0  0  0  0
    7.3280   -0.3260   19.9840 N   0  0  0  0  0  0  0  0  0  0  0  0
    6.1940    0.4240   20.0760 C   0  0  0  0  0  0  0  0  0  0  0  0
    5.3760    0.7980   21.1320 C   0  0  0  0  0  0  0  0  0  0  0  0
    4.2530    1.5620   20.8380 C   0  0  0  0  0  0  0  0  0  0  0  0
    3.9690    1.9430   19.5240 C   0  0  0  0  0  0  0  0  0  0  0  0
    4.8070    1.5760   18.4760 C   0  0  0  0  0  0  0  0  0  0  0  0
    5.9280    0.8030   18.7620 C   0  0  0  0  0  0  0  0  0  0  0  0
    6.9070    0.2810   17.9480 N   0  0  0  0  0  0  0  0  0  0  0  0
    7.7410   -0.3910   18.6920 N   0  0  0  0  0  0  0  0  0  0  0  0
    9.3820    0.2340   22.9730 N   0  0  0  0  0  0  0  0  0  0  0  0
    9.9450    1.3680   23.7010 C   0  0  0  0  0  0  0  0  0  0  0  0
   11.3820    1.5820   23.3770 C   0  0  0  0  0  0  0  0  0  0  0  0
   11.8540    2.7830   22.9930 N   0  0  0  0  0  0  0  0  0  0  0  0
   13.1980    2.7330   22.7600 N   0  0  0  0  0  0  0  0  0  0  0  0
   13.5450    1.4750   22.9940 C   0  0  0  0  0  0  0  0  0  0  0  0
   12.4460    0.7150   23.3870 C   0  0  0  0  0  0  0  0  0  0  0  0
    9.3090   -1.0250   23.6370 C   0  0  0  0  0  0  0  0  0  0  0  0
   10.1710   -2.0620   23.2940 C   0  0  0  0  0  0  0  0  0  0  0  0
   10.0840   -3.2820   23.9380 C   0  0  0  0  0  0  0  0  0  0  0  0
    8.3600   -1.2270   24.6280 C   0  0  0  0  0  0  0  0  0  0  0  0
    8.2830   -2.4380   25.2890 C   0  0  0  0  0  0  0  0  0  0  0  0
    9.1470   -3.4900   24.9640 C   0  0  0  0  0  0  0  0  0  0  0  0
    9.0970   -4.6850   25.6500 N   0  0  0  0  0  0  0  0  0  0  0  0
    8.0270   -4.9780   26.5960 C   0  0  0  0  0  0  0  0  0  0  0  0
    9.9960   -5.7780   25.3240 C   0  0  0  0  0  0  0  0  0  0  0  0
  2  1  2  0
  3  2  1  0
  4  3  1  0
  5  4  1  0
  6  5  2  0
  7  6  1  0
  8  7  2  0
  9  8  1  0
 10  9  2  0
 10  5  1  0
 11 10  1  0
 12 11  2  0
 12  4  1  0
 13  2  1  0
 14 13  1  0
 15 14  1  0
 16 15  1  0
 17 16  1  0
 18 17  2  0
 19 18  1  0
 19 15  2  0
 20 13  1  0
 21 20  2  0
 22 21  1  0
 23 20  1  0
 24 23  2  0
 25 24  1  0
 25 22  2  0
 26 25  1  0
 27 26  1  0
 28 26  1  0
M  END
