
     RDKit          3D

 27 30  0  0  0  0  0  0  0  0999 V2000
    9.3000    1.1990   21.1750 O   0  0  0  0  0  0  0  0  0  0  0  0
    8.8430    0.1400   21.5890 C   0  0  0  0  0  0  0  0  0  0  0  0
    9.4670   -0.6380   22.7820 C   0  0  1  0  0  0  0  0  0  0  0  0
   10.9680   -0.4510   22.7600 C   0  0  0  0  0  0  0  0  0  0  0  0
   11.7540   -1.1070   21.8170 C   0  0  0  0  0  0  0  0  0  0  0  0
   13.1220   -1.0070   21.9020 C   0  0  0  0  0  0  0  0  0  0  0  0
   13.8670   -1.6230   20.9450 F   0  0  0  0  0  0  0  0  0  0  0  0
   13.7780   -0.2960   22.8780 C   0  0  0  0  0  0  0  0  0  0  0  0
   12.9950    0.3490   23.7990 C   0  0  0  0  0  0  0  0  0  0  0  0
   13.5840    1.0730   24.7780 F   0  0  0  0  0  0  0  0  0  0  0  0
   11.6120    0.2840   23.7760 C   0  0  0  0  0  0  0  0  0  0  0  0
   10.9340    0.8890   24.8000 O   0  0  0  0  0  0  0  0  0  0  0  0
    9.5610    1.1920   24.5040 C   0  0  0  0  0  0  0  0  0  0  0  0
    8.8150   -0.0410   24.0400 C   0  0  0  0  0  0  0  0  0  0  0  0
    9.1220   -2.0150   22.5860 O   0  0  0  0  0  0  0  0  0  0  0  0
    9.5000   -2.9370   23.6150 C   0  0  0  0  0  0  0  0  0  0  0  0
    7.7530   -0.4520   21.0610 N   0  0  0  0  0  0  0  0  0  0  0  0
    7.0040    0.0020   19.9620 C   0  0  0  0  0  0  0  0  0  0  0  0
    5.8550    0.8150   20.2090 C   0  0  0  0  0  0  0  0  0  0  0  0
    5.4010    1.1650   21.5070 C   0  0  0  0  0  0  0  0  0  0  0  0
    4.3160    1.9800   21.6750 C   0  0  0  0  0  0  0  0  0  0  0  0
    3.6310    2.4790   20.5780 C   0  0  0  0  0  0  0  0  0  0  0  0
    4.0280    2.1690   19.3100 C   0  0  0  0  0  0  0  0  0  0  0  0
    5.1480    1.3300   19.0900 C   0  0  0  0  0  0  0  0  0  0  0  0
    5.6290    1.0030   17.8000 C   0  0  0  0  0  0  0  0  0  0  0  0
    6.6920    0.2470   17.5710 N   0  0  0  0  0  0  0  0  0  0  0  0
    7.3480   -0.2380   18.6330 C   0  0  0  0  0  0  0  0  0  0  0  0
  2  1  2  0
  3  2  1  0
  4  3  1  0
  5  4  2  0
  6  5  1  0
  7  6  1  0
  8  6  2  0
  9  8  1  0
 10  9  1  0
 11  9  2  0
 11  4  1  0
 12 11  1  0
 13 12  1  0
 14 13  1  0
 14  3  1  0
  3 15  1  6
 16 15  1  0
 17  2  1  0
 18 17  1  0
 19 18  1  0
 20 19  2  0
 21 20  1  0
 22 21  2  0
 23 22  1  0
 24 23  2  0
 24 19  1  0
 25 24  1  0
 26 25  2  0
 27 26  1  0
 27 18  2  0
M  END
