
     RDKit          3D

 26 29  0  0  0  0  0  0  0  0999 V2000
   13.9690   -1.7270   21.2830 Cl  0  0  0  0  0  0  0  0  0  0  0  0
   12.7380   -1.0680   22.3090 C   0  0  1  0  0  0  0  0  0  0  0  0
   13.0710   -0.1680   23.2990 C   0  0  2  0  0  0  0  0  0  0  0  0
   14.3780    0.0490   23.5790 F   0  0  0  0  0  0  0  0  0  0  0  0
   12.1140    0.4540   24.0610 C   0  0  0  0  0  0  0  0  0  0  0  0
   11.4120   -1.3870   22.0920 C   0  0  0  0  0  0  0  0  0  0  0  0
   10.4060   -0.7880   22.8480 C   0  0  0  0  0  0  0  0  0  0  0  0
   10.7850    0.1390   23.8320 C   0  0  0  0  0  0  0  0  0  0  0  0
    9.8870    0.7730   24.6620 O   0  0  0  0  0  0  0  0  0  0  0  0
    8.4810    0.5660   24.3970 C   0  0  0  0  0  0  0  0  0  0  0  0
    8.1740   -0.8340   23.9250 C   0  0  0  0  0  0  0  0  0  0  0  0
    8.9440   -1.1240   22.6220 C   0  0  1  0  0  0  0  0  0  0  0  0
    8.4680   -0.2600   21.4530 C   0  0  2  0  0  0  0  0  0  0  0  0
    9.1970    0.5750   20.9240 O   0  0  0  0  0  0  0  0  0  0  0  0
    7.1590   -0.3900   21.1410 N   0  0  0  0  0  0  0  0  0  0  0  0
    6.4730   -0.0170   19.9730 C   0  0  2  0  0  0  0  0  0  0  0  0
    6.9840   -0.0620   18.6750 C   0  0  0  0  0  0  0  0  0  0  0  0
    6.4360    0.5130   17.5950 N   0  0  0  0  0  0  0  0  0  0  0  0
    5.3340    1.2200   17.7790 C   0  0  0  0  0  0  0  0  0  0  0  0
    5.2830    0.7520   20.1670 C   0  0  1  0  0  0  0  0  0  0  0  0
    4.7380    1.0170   21.4530 C   0  0  0  0  0  0  0  0  0  0  0  0
    3.7140    1.9010   21.5620 C   0  0  0  0  0  0  0  0  0  0  0  0
    3.2360    2.1830   22.8020 F   0  0  0  0  0  0  0  0  0  0  0  0
    4.7120    1.4050   19.0370 C   0  0  1  0  0  0  0  0  0  0  0  0
    3.6270    2.2920   19.2360 C   0  0  0  0  0  0  0  0  0  0  0  0
    3.1430    2.5370   20.4880 C   0  0  0  0  0  0  0  0  0  0  0  0
  2  1  1  6
  3  2  1  0
  3  4  1  1
  5  3  1  0
  6  2  1  0
  7  6  1  0
  8  7  1  0
  8  5  1  0
  9  8  1  0
 10  9  1  0
 11 10  1  0
 12 11  1  1
 12  7  1  0
 13 12  1  0
 13 14  1  1
 15 13  1  0
 16 15  1  1
 17 16  1  0
 18 17  1  0
 19 18  1  0
 20 16  1  0
 20 21  1  1
 22 21  1  0
 23 22  1  0
 24 20  1  0
 24 19  1  1
 25 24  1  0
 26 25  1  0
 26 22  1  0
M  END
$$$$
