
     RDKit          3D

 25 28  0  0  0  0  0  0  0  0999 V2000
    9.0560    0.9460   21.1530 O   0  0  0  0  0  0  0  0  0  0  0  0
    8.5500   -0.1450   21.4250 C   0  0  0  0  0  0  0  0  0  0  0  0
    9.1430   -1.0360   22.5330 C   0  0  1  0  0  0  0  0  0  0  0  0
   10.5660   -0.5860   22.8060 C   0  0  0  0  0  0  0  0  0  0  0  0
   11.6150   -1.1650   22.0970 C   0  0  0  0  0  0  0  0  0  0  0  0
   12.9150   -0.8030   22.3910 C   0  0  0  0  0  0  0  0  0  0  0  0
   14.2170   -1.5230   21.4830 Cl  0  0  0  0  0  0  0  0  0  0  0  0
   13.2030    0.1200   23.3760 C   0  0  0  0  0  0  0  0  0  0  0  0
   12.1620    0.6870   24.0860 C   0  0  0  0  0  0  0  0  0  0  0  0
   10.8360    0.3440   23.8230 C   0  0  0  0  0  0  0  0  0  0  0  0
    9.7350    0.9220   24.6840 C   0  0  0  0  0  0  0  0  0  0  0  0
    8.3510    0.4110   24.3180 C   0  0  0  0  0  0  0  0  0  0  0  0
    8.3830   -0.9600   23.7940 N   0  0  0  0  0  0  0  0  0  0  0  0
    7.0480   -1.5610   23.7610 C   0  0  0  0  0  0  0  0  0  0  0  0
    7.4810   -0.6570   20.7710 N   0  0  0  0  0  0  0  0  0  0  0  0
    6.7430   -0.0670   19.7270 C   0  0  0  0  0  0  0  0  0  0  0  0
    5.6550    0.8010   20.0580 C   0  0  0  0  0  0  0  0  0  0  0  0
    5.2030    1.0310   21.3840 C   0  0  0  0  0  0  0  0  0  0  0  0
    4.1460    1.8610   21.6320 C   0  0  0  0  0  0  0  0  0  0  0  0
    3.4910    2.5050   20.5900 C   0  0  0  0  0  0  0  0  0  0  0  0
    3.8920    2.3220   19.2970 C   0  0  0  0  0  0  0  0  0  0  0  0
    4.9800    1.4650   18.9950 C   0  0  0  0  0  0  0  0  0  0  0  0
    5.4300    1.2210   17.6750 C   0  0  0  0  0  0  0  0  0  0  0  0
    6.4330    0.4110   17.3680 N   0  0  0  0  0  0  0  0  0  0  0  0
    7.0580   -0.2110   18.3750 C   0  0  0  0  0  0  0  0  0  0  0  0
  2  1  2  0
  3  2  1  6
  4  3  1  0
  5  4  2  0
  6  5  1  0
  7  6  1  0
  8  6  2  0
  9  8  1  0
 10  4  1  0
 10  9  2  0
 11 10  1  0
 12 11  1  0
 13 12  1  0
 13  3  1  0
 14 13  1  0
 15  2  1  0
 16 15  1  0
 17 16  1  0
 18 17  2  0
 19 18  1  0
 20 19  2  0
 21 20  1  0
 22 21  2  0
 22 17  1  0
 23 22  1  0
 24 23  2  0
 25 24  1  0
 25 16  2  0
M  END
