
     RDKit          3D

 27 30  0  0  0  0  0  0  0  0999 V2000
   14.0560   -1.5520   21.3760 Cl  0  0  0  0  0  0  0  0  0  0  0  0
   12.8180   -0.8610   22.3870 C   0  0  0  0  0  0  0  0  0  0  0  0
   11.4930   -1.1370   22.1120 C   0  0  0  0  0  0  0  0  0  0  0  0
   13.1830   -0.0610   23.4420 C   0  0  0  0  0  0  0  0  0  0  0  0
   12.1970    0.4680   24.2520 C   0  0  0  0  0  0  0  0  0  0  0  0
   10.8490    0.2070   24.0130 C   0  0  0  0  0  0  0  0  0  0  0  0
    9.8180    0.7710   24.9650 C   0  0  0  0  0  0  0  0  0  0  0  0
    8.4620    0.6920   24.4160 N   0  0  0  0  0  0  0  0  0  0  0  0
    7.3980    1.4260   25.1450 C   0  0  0  0  0  0  0  0  0  0  0  0
    6.2170    1.1780   24.8600 O   0  0  0  0  0  0  0  0  0  0  0  0
    7.7280    2.3260   26.0840 N   0  0  0  0  0  0  0  0  0  0  0  0
   10.4930   -0.5990   22.9200 C   0  0  0  0  0  0  0  0  0  0  0  0
    9.0330   -0.8980   22.6270 C   0  0  1  0  0  0  0  0  0  0  0  0
    8.1640   -0.6280   23.8550 C   0  0  0  0  0  0  0  0  0  0  0  0
    8.5560   -0.0760   21.4280 C   0  0  0  0  0  0  0  0  0  0  0  0
    9.0600    1.0060   21.1340 O   0  0  0  0  0  0  0  0  0  0  0  0
    7.5230   -0.6260   20.7490 N   0  0  0  0  0  0  0  0  0  0  0  0
    6.7400   -0.0380   19.7290 C   0  0  1  0  0  0  0  0  0  0  0  0
    5.5940    0.7320   20.1070 C   0  0  0  0  0  0  0  0  0  0  0  0
    5.1750    0.9160   21.4510 C   0  0  0  0  0  0  0  0  0  0  0  0
    4.0940    1.6940   21.7490 C   0  0  0  0  0  0  0  0  0  0  0  0
    3.3780    2.3280   20.7420 C   0  0  0  0  0  0  0  0  0  0  0  0
    3.7350    2.1780   19.4330 C   0  0  0  0  0  0  0  0  0  0  0  0
    4.8500    1.3760   19.0780 C   0  0  0  0  0  0  0  0  0  0  0  0
    5.2880    1.2060   17.7420 C   0  0  0  0  0  0  0  0  0  0  0  0
    6.3510    0.4970   17.3920 N   0  0  0  0  0  0  0  0  0  0  0  0
    7.0420   -0.1060   18.3680 C   0  0  0  0  0  0  0  0  0  0  0  0
  2  1  1  0
  3  2  1  0
  4  2  1  0
  5  4  1  0
  6  5  1  0
  7  6  1  0
  8  7  1  0
  9  8  1  0
 10  9  1  0
 11  9  1  0
 12  6  1  0
 12  3  1  0
 13 12  1  0
 14 13  1  0
 14  8  1  0
 13 15  1  6
 16 15  1  0
 17 15  1  0
 18 17  1  1
 19 18  1  0
 20 19  1  0
 21 20  1  0
 22 21  1  0
 23 22  1  0
 24 23  1  0
 24 19  1  0
 25 24  1  0
 26 25  1  0
 27 26  1  0
 27 18  1  0
M  END
$$$$
