
     RDKit          3D

 23 25  0  0  0  0  0  0  0  0999 V2000
    9.5920    0.9900   21.0790 O   0  0  0  0  0  0  0  0  0  0  0  0
    9.2550   -0.1570   21.3540 C   0  0  0  0  0  0  0  0  0  0  0  0
    8.1160   -0.7280   20.9030 N   0  0  0  0  0  0  0  0  0  0  0  0
    7.2350   -0.2080   19.9280 C   0  0  0  0  0  0  0  0  0  0  0  0
    6.0090    0.3980   20.3450 C   0  0  0  0  0  0  0  0  0  0  0  0
    5.5850    0.4690   21.6930 C   0  0  0  0  0  0  0  0  0  0  0  0
    4.4280    1.1060   22.0310 C   0  0  0  0  0  0  0  0  0  0  0  0
    3.6340    1.6940   21.0600 C   0  0  0  0  0  0  0  0  0  0  0  0
    3.9940    1.6450   19.7450 C   0  0  0  0  0  0  0  0  0  0  0  0
    5.1910    1.0040   19.3500 C   0  0  0  0  0  0  0  0  0  0  0  0
    5.6420    0.9640   18.0120 C   0  0  0  0  0  0  0  0  0  0  0  0
    6.7830    0.4140   17.6300 N   0  0  0  0  0  0  0  0  0  0  0  0
    7.5420   -0.1570   18.5730 C   0  0  0  0  0  0  0  0  0  0  0  0
   10.1260   -1.0540   22.2190 C   0  0  0  0  0  0  0  0  0  0  0  0
    9.3650   -1.8990   23.1320 N   0  0  0  0  0  0  0  0  0  0  0  0
    8.7200   -1.1020   24.1760 C   0  0  0  0  0  0  0  0  0  0  0  0
    7.8070   -1.9830   25.0140 C   0  0  0  0  0  0  0  0  0  0  0  0
   10.2200   -2.9030   23.7740 C   0  0  0  0  0  0  0  0  0  0  0  0
    9.3700   -3.8590   24.6030 C   0  0  0  0  0  0  0  0  0  0  0  0
    8.5600   -3.1140   25.5800 N   0  0  0  0  0  0  0  0  0  0  0  0
    8.4100   -3.4560   26.8880 C   0  0  0  0  0  0  0  0  0  0  0  0
    7.6880   -2.8010   27.6270 O   0  0  0  0  0  0  0  0  0  0  0  0
    9.1240   -4.6750   27.3910 C   0  0  0  0  0  0  0  0  0  0  0  0
  2  1  2  0
  3  2  1  0
  4  3  1  0
  5  4  1  0
  6  5  2  0
  7  6  1  0
  8  7  2  0
  9  8  1  0
 10  9  2  0
 10  5  1  0
 11 10  1  0
 12 11  2  0
 13 12  1  0
 13  4  2  0
 14  2  1  0
 15 14  1  0
 16 15  1  0
 17 16  1  0
 18 15  1  0
 19 18  1  0
 20 19  1  0
 20 17  1  0
 21 20  1  0
 22 21  2  0
 23 21  1  0
M  END
