
     RDKit          3D

 31 34  0  0  0  0  0  0  0  0999 V2000
    9.0840    1.4220   21.0540 O   0  0  0  0  0  0  0  0  0  0  0  0
    8.7720    0.3800   21.6140 C   0  0  0  0  0  0  0  0  0  0  0  0
    7.8780   -0.6290   20.9140 C   0  0  0  0  0  0  0  0  0  0  0  0
    6.9530    0.0020   19.8840 C   0  0  0  0  0  0  0  0  0  0  0  0
    5.8420    0.8030   20.2840 C   0  0  0  0  0  0  0  0  0  0  0  0
    5.5080    1.0510   21.6440 C   0  0  0  0  0  0  0  0  0  0  0  0
    4.4560    1.8580   21.9730 C   0  0  0  0  0  0  0  0  0  0  0  0
    3.6850    2.4550   20.9850 C   0  0  0  0  0  0  0  0  0  0  0  0
    3.9550    2.2370   19.6640 C   0  0  0  0  0  0  0  0  0  0  0  0
    5.0400    1.4070   19.2770 C   0  0  0  0  0  0  0  0  0  0  0  0
    5.3960    1.1650   17.9260 C   0  0  0  0  0  0  0  0  0  0  0  0
    6.4290    0.4190   17.5550 N   0  0  0  0  0  0  0  0  0  0  0  0
    7.1680   -0.1450   18.5230 C   0  0  0  0  0  0  0  0  0  0  0  0
    9.2030    0.0890   22.8780 N   0  0  0  0  0  0  0  0  0  0  0  0
    8.9540   -1.1260   23.5390 C   0  0  0  0  0  0  0  0  0  0  0  0
    8.0480   -1.2160   24.5960 C   0  0  0  0  0  0  0  0  0  0  0  0
    7.9850   -2.4190   25.2790 C   0  0  0  0  0  0  0  0  0  0  0  0
    9.7290   -2.1390   23.1360 N   0  0  0  0  0  0  0  0  0  0  0  0
    9.6530   -3.2980   23.8080 C   0  0  0  0  0  0  0  0  0  0  0  0
    8.8040   -3.4820   24.8990 C   0  0  0  0  0  0  0  0  0  0  0  0
    8.8100   -4.6830   25.5990 N   0  0  0  0  0  0  0  0  0  0  0  0
    7.6060   -5.1540   26.2680 C   0  0  0  0  0  0  0  0  0  0  0  0
    9.6820   -5.7780   25.1970 C   0  0  0  0  0  0  0  0  0  0  0  0
    9.9980    1.1020   23.5790 C   0  0  0  0  0  0  0  0  0  0  0  0
   11.4710    1.0730   23.2440 C   0  0  0  0  0  0  0  0  0  0  0  0
   12.0240    0.0320   22.4990 C   0  0  0  0  0  0  0  0  0  0  0  0
   13.3710    0.0590   22.1820 C   0  0  0  0  0  0  0  0  0  0  0  0
   14.0330   -1.2030   21.1810 Cl  0  0  0  0  0  0  0  0  0  0  0  0
   14.1990    1.0700   22.6180 C   0  0  0  0  0  0  0  0  0  0  0  0
   13.6500    2.1000   23.3600 C   0  0  0  0  0  0  0  0  0  0  0  0
   12.3000    2.1030   23.6650 C   0  0  0  0  0  0  0  0  0  0  0  0
  2  1  2  0
  3  2  1  0
  4  3  1  0
  5  4  1  0
  6  5  2  0
  7  6  1  0
  8  7  2  0
  9  8  1  0
 10  9  2  0
 10  5  1  0
 11 10  1  0
 12 11  2  0
 13 12  1  0
 13  4  2  0
 14  2  1  0
 15 14  1  0
 16 15  2  0
 17 16  1  0
 18 15  1  0
 19 18  2  0
 20 19  1  0
 20 17  2  0
 21 20  1  0
 22 21  1  0
 23 21  1  0
 24 14  1  0
 25 24  1  0
 26 25  2  0
 27 26  1  0
 28 27  1  0
 29 27  2  0
 30 29  1  0
 31 30  2  0
 31 25  1  0
M  END
