
     RDKit          3D

 35 38  0  0  0  0  0  0  0  0999 V2000
   13.6890   -1.2960   21.5500 Cl  0  0  0  0  0  0  0  0  0  0  0  0
   12.4210   -0.6200   22.5260 C   0  0  0  0  0  0  0  0  0  0  0  0
   12.7150    0.2210   23.5940 C   0  0  0  0  0  0  0  0  0  0  0  0
   14.3420    0.7260   23.9200 Cl  0  0  0  0  0  0  0  0  0  0  0  0
   11.7010    0.6820   24.4060 C   0  0  0  0  0  0  0  0  0  0  0  0
   10.3930    0.3280   24.1390 C   0  0  0  0  0  0  0  0  0  0  0  0
   11.1080   -0.9630   22.2460 C   0  0  0  0  0  0  0  0  0  0  0  0
   10.0760   -0.4830   23.0530 C   0  0  0  0  0  0  0  0  0  0  0  0
    8.6100   -0.8130   22.7330 C   0  0  1  0  0  0  0  0  0  0  0  0
    8.5000   -2.2950   22.3570 C   0  0  0  0  0  0  0  0  0  0  0  0
    7.7730   -0.5740   23.9190 N   0  0  0  0  0  0  0  0  0  0  0  0
    7.3440    0.5980   24.4190 C   0  0  0  0  0  0  0  0  0  0  0  0
    7.3480    1.6540   23.7900 O   0  0  0  0  0  0  0  0  0  0  0  0
    6.9180    0.5890   25.8830 C   0  0  2  0  0  0  0  0  0  0  0  0
    5.5390    0.1870   25.9800 O   0  0  0  0  0  0  0  0  0  0  0  0
    5.0830    0.1900   27.3460 C   0  0  0  0  0  0  0  0  0  0  0  0
    5.2320    1.5690   27.9520 C   0  0  0  0  0  0  0  0  0  0  0  0
    7.1040    1.9670   26.5020 C   0  0  0  0  0  0  0  0  0  0  0  0
    6.6470    1.9760   27.9020 N   0  0  0  0  0  0  0  0  0  0  0  0
    7.0820    3.1440   28.6950 C   0  0  1  0  0  0  0  0  0  0  0  0
    6.5370    4.4670   28.1780 C   0  0  0  0  0  0  0  0  0  0  0  0
    6.8110    2.9600   30.1790 C   0  0  0  0  0  0  0  0  0  0  0  0
    8.1480    0.1290   21.5740 C   0  0  0  0  0  0  0  0  0  0  0  0
    8.4230    1.3230   21.5780 O   0  0  0  0  0  0  0  0  0  0  0  0
    7.5040   -0.4650   20.5490 N   0  0  0  0  0  0  0  0  0  0  0  0
    6.5370   -0.0390   19.6130 C   0  0  0  0  0  0  0  0  0  0  0  0
    5.4790    0.8620   19.9710 C   0  0  0  0  0  0  0  0  0  0  0  0
    5.0370    1.0750   21.3020 C   0  0  0  0  0  0  0  0  0  0  0  0
    3.9410    1.8470   21.5670 C   0  0  0  0  0  0  0  0  0  0  0  0
    3.2360    2.4530   20.5400 C   0  0  0  0  0  0  0  0  0  0  0  0
    3.6240    2.2890   19.2420 C   0  0  0  0  0  0  0  0  0  0  0  0
    4.7470    1.4860   18.9200 C   0  0  0  0  0  0  0  0  0  0  0  0
    5.1250    1.1950   17.5930 C   0  0  0  0  0  0  0  0  0  0  0  0
    6.0890    0.3540   17.2590 N   0  0  0  0  0  0  0  0  0  0  0  0
    6.7540   -0.2460   18.2520 C   0  0  0  0  0  0  0  0  0  0  0  0
  2  1  1  0
  3  2  2  0
  4  3  1  0
  5  3  1  0
  6  5  2  0
  7  2  1  0
  8  6  1  0
  8  7  2  0
  9  8  1  0
  9 10  1  6
 11  9  1  0
 12 11  1  0
 13 12  2  0
 14 12  1  6
 15 14  1  0
 16 15  1  0
 17 16  1  0
 18 14  1  0
 19 17  1  0
 19 18  1  0
 20 19  1  0
 20 21  1  6
 22 20  1  0
 23  9  1  0
 24 23  2  0
 25 23  1  0
 26 25  1  0
 27 26  1  0
 28 27  2  0
 29 28  1  0
 30 29  2  0
 31 30  1  0
 32 31  2  0
 32 27  1  0
 33 32  1  0
 34 33  2  0
 35 34  1  0
 35 26  2  0
M  END
