
     RDKit          3D

 30 34  0  0  0  0  0  0  0  0999 V2000
    8.3330    1.0190   21.6100 O   0  0  0  0  0  0  0  0  0  0  0  0
    8.1470   -0.1840   21.4510 C   0  0  0  0  0  0  0  0  0  0  0  0
    7.5900   -0.7070   20.3360 N   0  0  0  0  0  0  0  0  0  0  0  0
    6.5810   -0.2050   19.4840 C   0  0  0  0  0  0  0  0  0  0  0  0
    5.5580    0.6740   19.9780 C   0  0  0  0  0  0  0  0  0  0  0  0
    5.1650    0.7420   21.3420 C   0  0  0  0  0  0  0  0  0  0  0  0
    4.1010    1.5030   21.7310 C   0  0  0  0  0  0  0  0  0  0  0  0
    3.3790    2.2380   20.8050 C   0  0  0  0  0  0  0  0  0  0  0  0
    3.7090    2.2040   19.4810 C   0  0  0  0  0  0  0  0  0  0  0  0
    4.7950    1.4120   19.0290 C   0  0  0  0  0  0  0  0  0  0  0  0
    5.0900    1.2290   17.6590 C   0  0  0  0  0  0  0  0  0  0  0  0
    6.0050    0.3920   17.2010 N   0  0  0  0  0  0  0  0  0  0  0  0
    6.7080   -0.3060   18.1010 C   0  0  0  0  0  0  0  0  0  0  0  0
    8.6430   -1.2230   22.4580 C   0  0  1  0  0  0  0  0  0  0  0  0
   10.0240   -0.7990   22.9110 C   0  0  0  0  0  0  0  0  0  0  0  0
   10.1840    0.0620   24.0060 C   0  0  0  0  0  0  0  0  0  0  0  0
   11.4390    0.5730   24.3260 C   0  0  0  0  0  0  0  0  0  0  0  0
   12.5460    0.1910   23.5870 C   0  0  0  0  0  0  0  0  0  0  0  0
   11.1520   -1.1980   22.1990 C   0  0  0  0  0  0  0  0  0  0  0  0
   12.3910   -0.7080   22.5550 C   0  0  0  0  0  0  0  0  0  0  0  0
   13.8000   -1.2840   21.7060 Cl  0  0  0  0  0  0  0  0  0  0  0  0
    7.7000   -1.3540   23.6690 C   0  0  0  0  0  0  0  0  0  0  0  0
    7.7020   -0.0830   24.5220 C   0  0  0  0  0  0  0  0  0  0  0  0
    9.0620    0.3460   24.8690 N   0  0  0  0  0  0  0  0  0  0  0  0
    9.1890    1.1960   26.0410 C   0  0  0  0  0  0  0  0  0  0  0  0
    9.5170    0.4330   27.2850 C   0  0  0  0  0  0  0  0  0  0  0  0
    9.8710    0.9590   28.4580 N   0  0  0  0  0  0  0  0  0  0  0  0
   10.0770   -0.0390   29.3680 N   0  0  0  0  0  0  0  0  0  0  0  0
    9.8340   -1.1450   28.6990 C   0  0  0  0  0  0  0  0  0  0  0  0
    9.4820   -0.9500   27.4010 N   0  0  0  0  0  0  0  0  0  0  0  0
  2  1  2  0
  3  2  1  0
  4  3  1  0
  5  4  1  0
  6  5  2  0
  7  6  1  0
  8  7  2  0
  9  8  1  0
 10  9  2  0
 10  5  1  0
 11 10  1  0
 12 11  2  0
 13 12  1  0
 13  4  2  0
 14  2  1  6
 15 14  1  0
 16 15  1  0
 17 16  2  0
 18 17  1  0
 19 15  2  0
 20 19  1  0
 20 18  2  0
 21 20  1  0
 22 14  1  0
 23 22  1  0
 24 23  1  0
 24 16  1  0
 25 24  1  0
 26 25  1  0
 27 26  1  0
 28 27  1  0
 29 28  2  0
 30 29  1  0
 30 26  2  0
M  END
> <BADATOMS>
24;25;29;28;27;26
> <BADCOMMENTS>
Weak Density;Weak Density;Weak Density;Weak Density;Weak Density;Weak Density
> <BADATOMNAMES>
[HET]1.C25;[HET]1.C26;[HET]1.N30;[HET]1.C29;[HET]1.N28;[HET]1.N27