
     RDKit          3D

 21 23  0  0  0  0  0  0  0  0999 V2000
    8.8590    0.9700   21.1070 O   0  0  0  0  0  0  0  0  0  0  0  0
    8.3330   -0.0870   21.4540 C   0  0  0  0  0  0  0  0  0  0  0  0
    8.9000   -0.9320   22.5760 C   0  0  0  0  0  0  0  0  0  0  0  0
   10.3420   -0.5830   22.8760 C   0  0  0  0  0  0  0  0  0  0  0  0
   10.6660    0.4490   23.7400 C   0  0  0  0  0  0  0  0  0  0  0  0
   11.9200    0.8510   23.9950 N   0  0  0  0  0  0  0  0  0  0  0  0
   12.9180    0.2160   23.3700 C   0  0  0  0  0  0  0  0  0  0  0  0
   11.3910   -1.2410   22.2470 C   0  0  0  0  0  0  0  0  0  0  0  0
   12.6830   -0.8270   22.4900 C   0  0  0  0  0  0  0  0  0  0  0  0
   13.9980   -1.5890   21.6410 Cl  0  0  0  0  0  0  0  0  0  0  0  0
    7.2280   -0.5960   20.8690 N   0  0  0  0  0  0  0  0  0  0  0  0
    6.4730   -0.0450   19.8130 C   0  0  0  0  0  0  0  0  0  0  0  0
    5.3140    0.7280   20.1330 C   0  0  0  0  0  0  0  0  0  0  0  0
    4.8230    0.9040   21.4540 C   0  0  0  0  0  0  0  0  0  0  0  0
    3.7210    1.6750   21.6960 C   0  0  0  0  0  0  0  0  0  0  0  0
    3.0540    2.3030   20.6520 C   0  0  0  0  0  0  0  0  0  0  0  0
    3.4840    2.1610   19.3620 C   0  0  0  0  0  0  0  0  0  0  0  0
    4.6240    1.3710   19.0670 C   0  0  0  0  0  0  0  0  0  0  0  0
    5.1330    1.2010   17.7550 C   0  0  0  0  0  0  0  0  0  0  0  0
    6.2080    0.4810   17.4610 N   0  0  0  0  0  0  0  0  0  0  0  0
    6.8450   -0.1230   18.4710 C   0  0  0  0  0  0  0  0  0  0  0  0
  2  1  2  0
  3  2  1  0
  4  3  1  0
  5  4  2  0
  6  5  1  0
  7  6  2  0
  8  4  1  0
  9  8  2  0
  9  7  1  0
 10  9  1  0
 11  2  1  0
 12 11  1  0
 13 12  1  0
 14 13  2  0
 15 14  1  0
 16 15  2  0
 17 16  1  0
 18 17  2  0
 18 13  1  0
 19 18  1  0
 20 19  2  0
 21 20  1  0
 21 12  2  0
M  END
