
     RDKit          3D

 27 31  0  0  0  0  0  0  0  0999 V2000
    8.9030    1.4080   21.1770 O   0  0  0  0  0  0  0  0  0  0  0  0
    8.6010    0.3190   21.6240 C   0  0  0  0  0  0  0  0  0  0  0  0
    9.1880   -0.3420   22.8900 C   0  0  2  0  0  0  0  0  0  0  0  0
    8.7400    0.5000   24.1070 C   0  0  0  0  0  0  0  0  0  0  0  0
    9.8960    0.9440   24.9870 C   0  0  0  0  0  0  0  0  0  0  0  0
   11.0120    1.4430   24.2250 O   0  0  0  0  0  0  0  0  0  0  0  0
   10.7020   -0.4500   22.7520 C   0  0  0  0  0  0  0  0  0  0  0  0
   11.5130    0.5080   23.3550 C   0  0  2  0  0  0  0  0  0  0  0  0
   12.8850    0.5260   23.1670 C   0  0  0  0  0  0  0  0  0  0  0  0
   13.4720   -0.4570   22.3960 C   0  0  0  0  0  0  0  0  0  0  0  0
   11.3090   -1.4530   22.0020 C   0  0  0  0  0  0  0  0  0  0  0  0
   12.6820   -1.4370   21.8390 C   0  0  0  0  0  0  0  0  0  0  0  0
   13.4310   -2.6780   20.8770 Cl  0  0  0  0  0  0  0  0  0  0  0  0
    7.6550   -0.5630   21.1100 N   0  0  0  0  0  0  0  0  0  0  0  0
    7.6130   -1.7540   21.8450 C   0  0  0  0  0  0  0  0  0  0  0  0
    6.9020   -2.7200   21.5990 O   0  0  0  0  0  0  0  0  0  0  0  0
    8.5120   -1.6360   22.8530 N   0  0  0  0  0  0  0  0  0  0  0  0
    6.7690   -0.2310   20.0180 C   0  0  1  0  0  0  0  0  0  0  0  0
    5.6380    0.6030   20.2740 C   0  0  0  0  0  0  0  0  0  0  0  0
    5.1000    0.8370   21.5680 C   0  0  0  0  0  0  0  0  0  0  0  0
    4.0230    1.6580   21.7420 C   0  0  0  0  0  0  0  0  0  0  0  0
    3.4280    2.2880   20.6560 C   0  0  0  0  0  0  0  0  0  0  0  0
    3.9090    2.0970   19.3930 C   0  0  0  0  0  0  0  0  0  0  0  0
    5.0220    1.2510   19.1650 C   0  0  0  0  0  0  0  0  0  0  0  0
    5.5740    1.0260   17.8770 C   0  0  0  0  0  0  0  0  0  0  0  0
    6.6310    0.2620   17.6460 N   0  0  0  0  0  0  0  0  0  0  0  0
    7.2010   -0.3410   18.6990 C   0  0  0  0  0  0  0  0  0  0  0  0
  2  1  1  0
  3  2  1  0
  3  4  1  1
  5  4  1  0
  6  5  1  0
  7  3  1  0
  8  7  1  0
  8  6  1  0
  8  9  1  1
 10  9  1  0
 11  7  1  0
 12 11  1  0
 12 10  1  0
 13 12  1  0
 14  2  1  0
 15 14  1  0
 16 15  1  0
 17 15  1  0
 17  3  1  0
 18 14  1  1
 19 18  1  0
 20 19  1  0
 21 20  1  0
 22 21  1  0
 23 22  1  0
 24 23  1  0
 24 19  1  0
 25 24  1  0
 26 25  1  0
 27 26  1  0
 27 18  1  0
M  END
$$$$
