
     RDKit          3D

 24 27  0  0  0  0  0  0  0  0999 V2000
    9.0960    1.1310   21.0560 O   0  0  0  0  0  0  0  0  0  0  0  0
    8.6090    0.0550   21.4110 C   0  0  0  0  0  0  0  0  0  0  0  0
    9.1960   -0.7610   22.5650 C   0  0  2  0  0  0  0  0  0  0  0  0
    8.3910   -0.5750   23.8570 C   0  0  0  0  0  0  0  0  0  0  0  0
    8.4180    0.8760   24.3120 C   0  0  0  0  0  0  0  0  0  0  0  0
   10.0800    1.4380   24.7420 S   0  0  0  0  0  0  0  0  0  0  0  0
   10.6670   -0.4470   22.7580 C   0  0  0  0  0  0  0  0  0  0  0  0
   11.1170    0.5500   23.6330 C   0  0  0  0  0  0  0  0  0  0  0  0
   12.4740    0.8650   23.7140 C   0  0  0  0  0  0  0  0  0  0  0  0
   13.3920    0.1830   22.9360 C   0  0  0  0  0  0  0  0  0  0  0  0
   11.6110   -1.1400   22.0030 C   0  0  0  0  0  0  0  0  0  0  0  0
   12.9470   -0.8050   22.0880 C   0  0  0  0  0  0  0  0  0  0  0  0
   14.0830   -1.5910   21.0250 Cl  0  0  0  0  0  0  0  0  0  0  0  0
    7.5260   -0.5070   20.8180 N   0  0  0  0  0  0  0  0  0  0  0  0
    6.7530    0.0050   19.7510 C   0  0  0  0  0  0  0  0  0  0  0  0
    5.6250    0.8310   20.0520 C   0  0  0  0  0  0  0  0  0  0  0  0
    5.1670    1.0890   21.3690 C   0  0  0  0  0  0  0  0  0  0  0  0
    4.1010    1.9160   21.5930 C   0  0  0  0  0  0  0  0  0  0  0  0
    3.4410    2.5210   20.5340 C   0  0  0  0  0  0  0  0  0  0  0  0
    3.8410    2.3010   19.2480 C   0  0  0  0  0  0  0  0  0  0  0  0
    4.9400    1.4520   18.9710 C   0  0  0  0  0  0  0  0  0  0  0  0
    5.4110    1.2000   17.6610 C   0  0  0  0  0  0  0  0  0  0  0  0
    6.4460    0.4240   17.3790 N   0  0  0  0  0  0  0  0  0  0  0  0
    7.0870   -0.1530   18.4030 C   0  0  0  0  0  0  0  0  0  0  0  0
  2  1  2  0
  3  2  1  6
  4  3  1  0
  5  4  1  0
  6  5  1  0
  7  3  1  0
  8  7  2  0
  8  6  1  0
  9  8  1  0
 10  9  2  0
 11  7  1  0
 12 11  2  0
 12 10  1  0
 13 12  1  0
 14  2  1  0
 15 14  1  0
 16 15  1  0
 17 16  2  0
 18 17  1  0
 19 18  2  0
 20 19  1  0
 21 20  2  0
 21 16  1  0
 22 21  1  0
 23 22  2  0
 24 23  1  0
 24 15  2  0
M  END
