
     RDKit          3D

 28 31  0  0  0  0  0  0  0  0999 V2000
    9.0860    1.1740   21.2600 O   0  0  0  0  0  0  0  0  0  0  0  0
    8.8580    0.0350   21.6440 C   0  0  0  0  0  0  0  0  0  0  0  0
    7.8990   -0.8620   20.8820 C   0  0  0  0  0  0  0  0  0  0  0  0
    7.0070   -0.1230   19.8990 C   0  0  0  0  0  0  0  0  0  0  0  0
    5.9350    0.6980   20.3550 C   0  0  0  0  0  0  0  0  0  0  0  0
    5.6550    0.9260   21.7290 C   0  0  0  0  0  0  0  0  0  0  0  0
    4.6340    1.7490   22.1100 C   0  0  0  0  0  0  0  0  0  0  0  0
    3.8370    2.3750   21.1620 C   0  0  0  0  0  0  0  0  0  0  0  0
    4.0590    2.1810   19.8270 C   0  0  0  0  0  0  0  0  0  0  0  0
    5.1130    1.3430   19.3880 C   0  0  0  0  0  0  0  0  0  0  0  0
    5.4190    1.1240   18.0220 C   0  0  0  0  0  0  0  0  0  0  0  0
    6.4250    0.3680   17.5990 N   0  0  0  0  0  0  0  0  0  0  0  0
    7.1820   -0.2340   18.5290 C   0  0  0  0  0  0  0  0  0  0  0  0
    9.4170   -0.4680   22.7710 N   0  0  0  0  0  0  0  0  0  0  0  0
   10.2770    0.3680   23.5900 C   0  0  0  0  0  0  0  0  0  0  0  0
   11.7460    0.3670   23.2890 C   0  0  0  0  0  0  0  0  0  0  0  0
   12.4310   -0.7330   22.1640 S   0  0  0  0  0  0  0  0  0  0  0  0
   13.9780   -0.0800   22.3700 C   0  0  0  0  0  0  0  0  0  0  0  0
   13.9780    0.9320   23.2590 C   0  0  0  0  0  0  0  0  0  0  0  0
   12.7040    1.1990   23.8000 C   0  0  0  0  0  0  0  0  0  0  0  0
    9.1560   -1.8270   23.2730 C   0  0  0  0  0  0  0  0  0  0  0  0
    8.2460   -1.7490   24.4930 C   0  0  0  0  0  0  0  0  0  0  0  0
    8.2340   -2.8680   25.5490 C   0  0  1  0  0  0  0  0  0  0  0  0
    7.0490   -3.8190   25.3950 C   0  0  0  0  0  0  0  0  0  0  0  0
    6.9940   -4.8560   26.5200 C   0  0  0  0  0  0  0  0  0  0  0  0
    8.2950   -5.6460   26.6220 C   0  0  0  0  0  0  0  0  0  0  0  0
    9.4960   -4.7160   26.7450 C   0  0  0  0  0  0  0  0  0  0  0  0
    9.5260   -3.6840   25.6180 C   0  0  0  0  0  0  0  0  0  0  0  0
  2  1  2  0
  3  2  1  0
  4  3  1  0
  5  4  1  0
  6  5  2  0
  7  6  1  0
  8  7  2  0
  9  8  1  0
 10  9  2  0
 10  5  1  0
 11 10  1  0
 12 11  2  0
 13 12  1  0
 13  4  2  0
 14  2  1  0
 15 14  1  0
 16 15  1  0
 17 16  1  0
 18 17  1  0
 19 18  2  0
 20 19  1  0
 20 16  2  0
 21 14  1  0
 22 21  1  0
 23 22  1  6
 24 23  1  0
 25 24  1  0
 26 25  1  0
 27 26  1  0
 28 27  1  0
 28 23  1  0
M  END
> <BADATOMS>
27;24;23;22;21;20
> <BADCOMMENTS>
Weak Density;Weak Density;Weak Density;Weak Density;Weak Density;Weak Density
> <BADATOMNAMES>
[HET]1.C28;[HET]1.C25;[HET]1.C24;[HET]1.C23;[HET]1.C22;[HET]1.C21