
     RDKit          3D

 34 38  0  0  0  0  0  0  0  0999 V2000
    9.2510    1.3630   21.0870 O   0  0  0  0  0  0  0  0  0  0  0  0
    8.8590    0.2550   21.4280 C   0  0  0  0  0  0  0  0  0  0  0  0
    7.9470   -0.4060   20.6880 N   0  0  0  0  0  0  0  0  0  0  0  0
    6.8900   -0.0240   19.8460 C   0  0  0  0  0  0  0  0  0  0  0  0
    5.8630    0.8840   20.2750 C   0  0  0  0  0  0  0  0  0  0  0  0
    5.5330    1.1170   21.6360 C   0  0  0  0  0  0  0  0  0  0  0  0
    4.4520    1.8810   21.9790 C   0  0  0  0  0  0  0  0  0  0  0  0
    3.6570    2.4640   21.0010 C   0  0  0  0  0  0  0  0  0  0  0  0
    3.9420    2.2860   19.6780 C   0  0  0  0  0  0  0  0  0  0  0  0
    5.0420    1.4850   19.2790 C   0  0  0  0  0  0  0  0  0  0  0  0
    5.3190    1.1820   17.9280 C   0  0  0  0  0  0  0  0  0  0  0  0
    6.2680    0.3540   17.5300 N   0  0  0  0  0  0  0  0  0  0  0  0
    7.0040   -0.2410   18.4760 C   0  0  0  0  0  0  0  0  0  0  0  0
    9.4800   -0.4700   22.6480 C   0  0  2  0  0  0  0  0  0  0  0  0
    8.7840    0.1610   23.8780 C   0  0  0  0  0  0  0  0  0  0  0  0
    9.3330    1.5360   24.1940 C   0  0  0  0  0  0  0  0  0  0  0  0
   10.7460    1.5070   24.4580 O   0  0  0  0  0  0  0  0  0  0  0  0
   10.9810   -0.1700   22.7020 C   0  0  0  0  0  0  0  0  0  0  0  0
   11.5080    0.8150   23.5470 C   0  0  0  0  0  0  0  0  0  0  0  0
   12.8620    1.1070   23.5670 C   0  0  0  0  0  0  0  0  0  0  0  0
   13.7190    0.4050   22.7410 C   0  0  0  0  0  0  0  0  0  0  0  0
   11.8640   -0.8880   21.8980 C   0  0  0  0  0  0  0  0  0  0  0  0
   13.2110   -0.5760   21.9170 C   0  0  0  0  0  0  0  0  0  0  0  0
   14.2720   -1.3640   20.7780 Cl  0  0  0  0  0  0  0  0  0  0  0  0
    9.2890   -2.0070   22.6540 C   0  0  0  0  0  0  0  0  0  0  0  0
    9.4570   -2.5890   23.9730 N   0  0  0  0  0  0  0  0  0  0  0  0
    8.5520   -3.3890   24.5240 C   0  0  0  0  0  0  0  0  0  0  0  0
    7.9710   -4.2830   23.9100 O   0  0  0  0  0  0  0  0  0  0  0  0
    8.1920   -3.0360   25.9570 C   0  0  0  0  0  0  0  0  0  0  0  0
    8.7200   -3.9530   26.9600 N   0  0  0  0  0  0  0  0  0  0  0  0
    9.8200   -4.7210   26.8630 C   0  0  0  0  0  0  0  0  0  0  0  0
    9.9970   -5.4730   27.9280 N   0  0  0  0  0  0  0  0  0  0  0  0
    8.9500   -5.1570   28.7590 C   0  0  0  0  0  0  0  0  0  0  0  0
    8.1590   -4.2260   28.1850 C   0  0  0  0  0  0  0  0  0  0  0  0
  2  1  2  0
  3  2  1  0
  4  3  1  0
  5  4  1  0
  6  5  2  0
  7  6  1  0
  8  7  2  0
  9  8  1  0
 10  9  2  0
 10  5  1  0
 11 10  1  0
 12 11  2  0
 13 12  1  0
 13  4  2  0
 14  2  1  0
 15 14  1  0
 16 15  1  0
 17 16  1  0
 18 14  1  0
 19 17  1  0
 19 18  2  0
 20 19  1  0
 21 20  2  0
 22 18  1  0
 23 22  2  0
 23 21  1  0
 24 23  1  0
 14 25  1  6
 26 25  1  0
 27 26  1  0
 28 27  2  0
 29 27  1  0
 30 29  1  0
 31 30  1  0
 32 31  2  0
 33 32  1  0
 34 30  1  0
 34 33  2  0
M  END
> <BADATOMS>
32;31;30;29;33;28;26;27
> <BADCOMMENTS>
Weak Density;Weak Density;Weak Density;Weak Density;Weak Density;Weak Density;Weak Density;Weak Density
> <BADATOMNAMES>
[HET]1.C33;[HET]1.N32;[HET]1.C31;[HET]1.N30;[HET]1.C34;[HET]1.C29;[HET]1.C27;[HET]1.O28