
     RDKit          3D

 27 30  0  0  0  0  0  0  0  0999 V2000
    3.7430    2.1640   23.1230 F   0  0  0  0  0  0  0  0  0  0  0  0
    4.1730    1.8810   21.8630 C   0  0  0  0  0  0  0  0  0  0  0  0
    3.4160    2.3290   20.8030 C   0  0  0  0  0  0  0  0  0  0  0  0
    3.8180    2.0430   19.5320 C   0  0  0  0  0  0  0  0  0  0  0  0
    5.3160    1.1690   21.7180 C   0  0  0  0  0  0  0  0  0  0  0  0
    5.7730    0.8600   20.4090 C   0  0  0  0  0  0  0  0  0  0  0  0
    5.0030    1.3060   19.2960 C   0  0  0  0  0  0  0  0  0  0  0  0
    5.4790    0.9970   17.9980 C   0  0  0  0  0  0  0  0  0  0  0  0
    6.5890    0.3150   17.7540 N   0  0  0  0  0  0  0  0  0  0  0  0
    7.3030   -0.1020   18.8090 C   0  0  0  0  0  0  0  0  0  0  0  0
    6.9770    0.1340   20.1460 C   0  0  0  0  0  0  0  0  0  0  0  0
    7.7870   -0.2440   21.2430 N   0  0  0  0  0  0  0  0  0  0  0  0
    8.9240    0.3500   21.6750 C   0  0  0  0  0  0  0  0  0  0  0  0
    9.4330    1.3130   21.1200 O   0  0  0  0  0  0  0  0  0  0  0  0
    9.5020   -0.1760   23.0320 C   0  0  1  0  0  0  0  0  0  0  0  0
    8.8670   -1.4430   23.2760 O   0  0  0  0  0  0  0  0  0  0  0  0
    9.5260   -2.6270   22.8090 C   0  0  0  0  0  0  0  0  0  0  0  0
   11.0150   -0.1590   23.1480 C   0  0  0  0  0  0  0  0  0  0  0  0
   11.8020   -0.7200   22.1450 C   0  0  0  0  0  0  0  0  0  0  0  0
   13.1580   -0.4500   22.1110 C   0  0  0  0  0  0  0  0  0  0  0  0
   14.1370   -1.2180   20.8940 Cl  0  0  0  0  0  0  0  0  0  0  0  0
   13.7600    0.3830   23.0260 C   0  0  0  0  0  0  0  0  0  0  0  0
   13.0010    0.9370   24.0390 C   0  0  0  0  0  0  0  0  0  0  0  0
   11.6430    0.6650   24.0970 C   0  0  0  0  0  0  0  0  0  0  0  0
   10.9650    1.2810   25.1220 O   0  0  0  0  0  0  0  0  0  0  0  0
    9.6290    0.8010   25.3440 C   0  0  0  0  0  0  0  0  0  0  0  0
    8.8370    0.7600   24.0540 C   0  0  0  0  0  0  0  0  0  0  0  0
  2  1  1  0
  3  2  2  0
  4  3  1  0
  5  2  1  0
  6  5  2  0
  7  4  2  0
  7  6  1  0
  8  7  1  0
  9  8  2  0
 10  9  1  0
 11 10  2  0
 11  6  1  0
 12 11  1  0
 13 12  1  0
 14 13  2  0
 15 13  1  0
 15 16  1  1
 17 16  1  0
 18 15  1  0
 19 18  2  0
 20 19  1  0
 21 20  1  0
 22 20  2  0
 23 22  1  0
 24 23  2  0
 24 18  1  0
 25 24  1  0
 26 25  1  0
 27 26  1  0
 27 15  1  0
M  END
