
     RDKit          3D

 27 31  0  0  0  0  0  0  0  0999 V2000
    8.7600    1.0760   21.0550 O   0  0  0  0  0  0  0  0  0  0  0  0
    8.2610    0.0320   21.4310 C   0  0  0  0  0  0  0  0  0  0  0  0
    8.6350   -0.7460   22.6970 C   0  0  2  0  0  0  0  0  0  0  0  0
    7.8850   -0.1040   23.8870 C   0  0  0  0  0  0  0  0  0  0  0  0
    8.6750    1.0280   24.5030 C   0  0  0  0  0  0  0  0  0  0  0  0
    9.9620    0.5720   24.9570 O   0  0  0  0  0  0  0  0  0  0  0  0
   10.1520   -0.7630   22.9270 C   0  0  0  0  0  0  0  0  0  0  0  0
   10.7170   -0.0500   23.9920 C   0  0  0  0  0  0  0  0  0  0  0  0
   12.0900    0.0430   24.1560 C   0  0  0  0  0  0  0  0  0  0  0  0
   12.9250   -0.5930   23.2570 C   0  0  0  0  0  0  0  0  0  0  0  0
   11.0090   -1.4210   22.0470 C   0  0  0  0  0  0  0  0  0  0  0  0
   12.3790   -1.3180   22.2250 C   0  0  0  0  0  0  0  0  0  0  0  0
   13.4410   -2.1150   21.0950 Cl  0  0  0  0  0  0  0  0  0  0  0  0
    7.2400   -0.6740   20.7830 N   0  0  0  0  0  0  0  0  0  0  0  0
    6.9960   -1.9200   21.3620 C   0  0  0  0  0  0  0  0  0  0  0  0
    6.0690   -2.6530   21.0520 O   0  0  0  0  0  0  0  0  0  0  0  0
    8.0240   -2.1390   22.4360 C   0  0  0  0  0  0  0  0  0  0  0  0
    6.4540   -0.1300   19.7030 C   0  0  0  0  0  0  0  0  0  0  0  0
    5.4090    0.7920   20.0000 C   0  0  0  0  0  0  0  0  0  0  0  0
    4.9090    1.0420   21.3050 C   0  0  0  0  0  0  0  0  0  0  0  0
    3.9090    1.9490   21.5120 C   0  0  0  0  0  0  0  0  0  0  0  0
    3.3560    2.6480   20.4480 C   0  0  0  0  0  0  0  0  0  0  0  0
    3.7990    2.4410   19.1730 C   0  0  0  0  0  0  0  0  0  0  0  0
    4.8340    1.5100   18.9120 C   0  0  0  0  0  0  0  0  0  0  0  0
    5.3380    1.2530   17.6120 C   0  0  0  0  0  0  0  0  0  0  0  0
    6.3150    0.3950   17.3470 N   0  0  0  0  0  0  0  0  0  0  0  0
    6.8530   -0.2720   18.3790 C   0  0  0  0  0  0  0  0  0  0  0  0
  2  1  2  0
  3  2  1  0
  3  4  1  1
  5  4  1  0
  6  5  1  0
  7  3  1  0
  8  7  2  0
  8  6  1  0
  9  8  1  0
 10  9  2  0
 11  7  1  0
 12 11  2  0
 12 10  1  0
 13 12  1  0
 14  2  1  0
 15 14  1  0
 16 15  2  0
 17 15  1  0
 17  3  1  0
 18 14  1  0
 19 18  1  0
 20 19  2  0
 21 20  1  0
 22 21  2  0
 23 22  1  0
 24 23  2  0
 24 19  1  0
 25 24  1  0
 26 25  2  0
 27 26  1  0
 27 18  2  0
M  END
