
     RDKit          3D

 34 38  0  0  0  0  0  0  0  0999 V2000
    8.8820    1.3400   21.3860 O   0  0  0  0  0  0  0  0  0  0  0  0
    8.5780    0.1710   21.5750 C   0  0  0  0  0  0  0  0  0  0  0  0
    7.8230   -0.4960   20.6760 N   0  0  0  0  0  0  0  0  0  0  0  0
    6.7510   -0.1280   19.8380 C   0  0  0  0  0  0  0  0  0  0  0  0
    5.7270    0.7710   20.2900 C   0  0  0  0  0  0  0  0  0  0  0  0
    5.3910    0.9610   21.6570 C   0  0  0  0  0  0  0  0  0  0  0  0
    4.3100    1.7140   22.0180 C   0  0  0  0  0  0  0  0  0  0  0  0
    3.5170    2.3240   21.0550 C   0  0  0  0  0  0  0  0  0  0  0  0
    3.8040    2.1840   19.7270 C   0  0  0  0  0  0  0  0  0  0  0  0
    4.9080    1.4010   19.3070 C   0  0  0  0  0  0  0  0  0  0  0  0
    5.1770    1.1200   17.9460 C   0  0  0  0  0  0  0  0  0  0  0  0
    6.1070    0.2760   17.5310 N   0  0  0  0  0  0  0  0  0  0  0  0
    6.8420   -0.3400   18.4640 C   0  0  0  0  0  0  0  0  0  0  0  0
    9.1290   -0.6080   22.7960 C   0  0  2  0  0  0  0  0  0  0  0  0
    8.3510   -0.0550   24.0150 C   0  0  0  0  0  0  0  0  0  0  0  0
    8.8370    1.3200   24.4310 C   0  0  0  0  0  0  0  0  0  0  0  0
   10.2430    1.3290   24.7400 O   0  0  0  0  0  0  0  0  0  0  0  0
   10.6180   -0.2480   22.9220 C   0  0  0  0  0  0  0  0  0  0  0  0
   11.0550    0.7600   23.7910 C   0  0  0  0  0  0  0  0  0  0  0  0
   12.3780    1.1730   23.8150 C   0  0  0  0  0  0  0  0  0  0  0  0
   13.2980    0.5510   22.9930 C   0  0  0  0  0  0  0  0  0  0  0  0
   11.5650   -0.8910   22.1300 C   0  0  0  0  0  0  0  0  0  0  0  0
   12.8830   -0.4790   22.1780 C   0  0  0  0  0  0  0  0  0  0  0  0
   14.0460   -1.2590   21.1420 Cl  0  0  0  0  0  0  0  0  0  0  0  0
    8.9720   -2.1480   22.6380 C   0  0  0  0  0  0  0  0  0  0  0  0
    8.5820   -2.8610   23.8430 N   0  0  0  0  0  0  0  0  0  0  0  0
    7.7810   -3.9240   23.8230 C   0  0  0  0  0  0  0  0  0  0  0  0
    7.4210   -4.4860   22.7900 O   0  0  0  0  0  0  0  0  0  0  0  0
    7.3140   -4.4050   25.1870 C   0  0  0  0  0  0  0  0  0  0  0  0
    6.1600   -3.6720   25.7020 N   0  0  0  0  0  0  0  0  0  0  0  0
    6.0050   -2.3340   25.7710 C   0  0  0  0  0  0  0  0  0  0  0  0
    4.8810   -1.9920   26.3620 N   0  0  0  0  0  0  0  0  0  0  0  0
    4.2770   -3.1830   26.6830 C   0  0  0  0  0  0  0  0  0  0  0  0
    5.0430   -4.2240   26.2820 C   0  0  0  0  0  0  0  0  0  0  0  0
  2  1  2  0
  3  2  1  0
  4  3  1  0
  5  4  1  0
  6  5  2  0
  7  6  1  0
  8  7  2  0
  9  8  1  0
 10  9  2  0
 10  5  1  0
 11 10  1  0
 12 11  2  0
 13 12  1  0
 13  4  2  0
 14  2  1  0
 15 14  1  0
 16 15  1  0
 17 16  1  0
 18 14  1  0
 19 18  2  0
 19 17  1  0
 20 19  1  0
 21 20  2  0
 22 18  1  0
 23 22  2  0
 23 21  1  0
 24 23  1  0
 14 25  1  6
 26 25  1  0
 27 26  1  0
 28 27  2  0
 29 27  1  0
 30 29  1  0
 31 30  1  0
 32 31  2  0
 33 32  1  0
 34 33  2  0
 34 30  1  0
M  END
> <BADATOMS>
27;26;28;29;33;32;31;30
> <BADCOMMENTS>
Weak Density;Weak Density;Weak Density;Weak Density;Weak Density;Weak Density;Weak Density;Weak Density
> <BADATOMNAMES>
[HET]1.O28;[HET]1.C27;[HET]1.C29;[HET]1.N30;[HET]1.C34;[HET]1.C33;[HET]1.N32;[HET]1.C31