
     RDKit          3D

 31 34  0  0  0  0  0  0  0  0999 V2000
   14.0470   -1.5290   21.0650 Cl  0  0  0  0  0  0  0  0  0  0  0  0
   13.0580   -0.7280   22.2560 C   0  0  0  0  0  0  0  0  0  0  0  0
   13.6590    0.1020   23.1760 C   0  0  0  0  0  0  0  0  0  0  0  0
   12.8740    0.7960   24.0770 C   0  0  0  0  0  0  0  0  0  0  0  0
   11.6840   -0.9040   22.2150 C   0  0  0  0  0  0  0  0  0  0  0  0
   10.8790   -0.1960   23.1030 C   0  0  0  0  0  0  0  0  0  0  0  0
   11.4970    0.6510   24.0310 C   0  0  0  0  0  0  0  0  0  0  0  0
   10.7890    1.3940   24.9420 O   0  0  0  0  0  0  0  0  0  0  0  0
    9.5670    0.7700   25.3710 C   0  0  0  0  0  0  0  0  0  0  0  0
    8.6530    0.4400   24.2060 C   0  0  0  0  0  0  0  0  0  0  0  0
    9.3710   -0.3480   23.0900 C   0  0  2  0  0  0  0  0  0  0  0  0
    8.9980   -1.7280   22.9460 O   0  0  0  0  0  0  0  0  0  0  0  0
    9.1480   -2.5720   24.0920 C   0  0  0  0  0  0  0  0  0  0  0  0
    8.7710    0.2820   21.7900 C   0  0  0  0  0  0  0  0  0  0  0  0
    9.2780    1.2670   21.2750 O   0  0  0  0  0  0  0  0  0  0  0  0
    7.6600   -0.3200   21.3090 N   0  0  0  0  0  0  0  0  0  0  0  0
    6.9160    0.0500   20.1600 C   0  0  0  0  0  0  0  0  0  0  0  0
    7.3620   -0.1250   18.8510 C   0  0  0  0  0  0  0  0  0  0  0  0
    6.7470    0.3410   17.7550 N   0  0  0  0  0  0  0  0  0  0  0  0
    5.6210    1.0130   17.9240 C   0  0  0  0  0  0  0  0  0  0  0  0
    5.0220    1.2580   19.1840 C   0  0  0  0  0  0  0  0  0  0  0  0
    5.6820    0.7500   20.3400 C   0  0  0  0  0  0  0  0  0  0  0  0
    5.0700    0.9500   21.6050 C   0  0  0  0  0  0  0  0  0  0  0  0
    3.8800    1.6030   21.7180 C   0  0  0  0  0  0  0  0  0  0  0  0
    3.7970    1.9490   19.3390 C   0  0  0  0  0  0  0  0  0  0  0  0
    3.2480    2.0920   20.5830 C   0  0  0  0  0  0  0  0  0  0  0  0
    1.6580    2.8310   20.7250 S   0  0  1  0  0  0  0  0  0  0  0  0
    1.2950    3.3530   19.4440 O   0  0  0  0  0  0  0  0  0  0  0  0
    0.7960    1.8880   21.3700 O   0  0  0  0  0  0  0  0  0  0  0  0
    1.7960    4.0940   21.7160 N   0  0  0  0  0  0  0  0  0  0  0  0
    2.5000    5.2810   21.2480 C   0  0  0  0  0  0  0  0  0  0  0  0
  2  1  1  0
  3  2  2  0
  4  3  1  0
  5  2  1  0
  6  5  2  0
  7  6  1  0
  7  4  2  0
  8  7  1  0
  9  8  1  0
 10  9  1  0
 11 10  1  0
 11  6  1  0
 11 12  1  1
 13 12  1  0
 14 11  1  0
 15 14  2  0
 16 14  1  0
 17 16  1  0
 18 17  2  0
 19 18  1  0
 20 19  2  0
 21 20  1  0
 22 21  2  0
 22 17  1  0
 23 22  1  0
 24 23  2  0
 25 21  1  0
 26 25  2  0
 26 24  1  0
 27 26  1  0
 28 27  2  0
 29 27  2  0
 27 30  1  1
 31 30  1  0
M  END
