
     RDKit          3D

 27 30  0  0  0  0  0  0  0  0999 V2000
    9.3400    1.1460   21.1680 O   0  0  0  0  0  0  0  0  0  0  0  0
    8.7480    0.2430   21.7440 C   0  0  0  0  0  0  0  0  0  0  0  0
    9.3140   -0.3680   23.0750 C   0  0  1  0  0  0  0  0  0  0  0  0
   10.8310   -0.3660   23.1040 C   0  0  0  0  0  0  0  0  0  0  0  0
   11.5770   -0.9410   22.0770 C   0  0  0  0  0  0  0  0  0  0  0  0
   12.9500   -0.9510   22.1690 C   0  0  0  0  0  0  0  0  0  0  0  0
   13.6590   -1.4530   21.1220 F   0  0  0  0  0  0  0  0  0  0  0  0
   13.6500   -0.4400   23.2300 C   0  0  0  0  0  0  0  0  0  0  0  0
   12.9140    0.1250   24.2350 C   0  0  0  0  0  0  0  0  0  0  0  0
   13.5530    0.6540   25.3050 F   0  0  0  0  0  0  0  0  0  0  0  0
   11.5300    0.1820   24.2050 C   0  0  0  0  0  0  0  0  0  0  0  0
   10.9120    0.7960   25.2650 O   0  0  0  0  0  0  0  0  0  0  0  0
    9.5350    0.4320   25.4530 C   0  0  0  0  0  0  0  0  0  0  0  0
    8.7460    0.5530   24.1670 C   0  0  0  0  0  0  0  0  0  0  0  0
    8.7210   -1.6420   23.3730 O   0  0  0  0  0  0  0  0  0  0  0  0
    9.0630   -2.7470   22.5280 C   0  0  0  0  0  0  0  0  0  0  0  0
    7.5510   -0.2350   21.3340 N   0  0  0  0  0  0  0  0  0  0  0  0
    6.8190    0.1350   20.1800 C   0  0  0  0  0  0  0  0  0  0  0  0
    5.6010    0.8630   20.3490 C   0  0  0  0  0  0  0  0  0  0  0  0
    5.0240    1.1500   21.6130 C   0  0  0  0  0  0  0  0  0  0  0  0
    3.8600    1.8550   21.7100 C   0  0  0  0  0  0  0  0  0  0  0  0
    3.2110    2.3120   20.5680 C   0  0  0  0  0  0  0  0  0  0  0  0
    3.7190    2.0530   19.3280 C   0  0  0  0  0  0  0  0  0  0  0  0
    4.9210    1.3160   19.1820 C   0  0  0  0  0  0  0  0  0  0  0  0
    5.4830    0.9910   17.9230 C   0  0  0  0  0  0  0  0  0  0  0  0
    6.5990    0.2940   17.7660 N   0  0  0  0  0  0  0  0  0  0  0  0
    7.2360   -0.1140   18.8710 C   0  0  0  0  0  0  0  0  0  0  0  0
  2  1  2  0
  3  2  1  0
  4  3  1  0
  5  4  2  0
  6  5  1  0
  7  6  1  0
  8  6  2  0
  9  8  1  0
 10  9  1  0
 11  4  1  0
 11  9  2  0
 12 11  1  0
 13 12  1  0
 14 13  1  0
 14  3  1  0
  3 15  1  1
 16 15  1  0
 17  2  1  0
 18 17  1  0
 19 18  1  0
 20 19  2  0
 21 20  1  0
 22 21  2  0
 23 22  1  0
 24 23  2  0
 24 19  1  0
 25 24  1  0
 26 25  2  0
 27 26  1  0
 27 18  2  0
M  END
> <BADATOMS>
25;24
> <BADCOMMENTS>
Weak Density;Weak Density
> <BADATOMNAMES>
[HET]1.N26;[HET]1.C25