
     RDKit          3D

 28 31  0  0  0  0  0  0  0  0999 V2000
   14.0430   -1.2690   20.9590 Cl  0  0  0  0  0  0  0  0  0  0  0  0
   13.1210   -0.3860   22.1440 C   0  0  0  0  0  0  0  0  0  0  0  0
   13.7730    0.4830   22.9920 C   0  0  0  0  0  0  0  0  0  0  0  0
   13.0380    1.2050   23.9130 C   0  0  0  0  0  0  0  0  0  0  0  0
   11.6580    1.0610   23.9560 C   0  0  0  0  0  0  0  0  0  0  0  0
   11.0140    1.7900   24.9280 O   0  0  0  0  0  0  0  0  0  0  0  0
    9.7070    1.2990   25.2930 C   0  0  0  0  0  0  0  0  0  0  0  0
    8.8280    1.1170   24.0820 C   0  0  0  0  0  0  0  0  0  0  0  0
   11.7480   -0.5440   22.1780 C   0  0  0  0  0  0  0  0  0  0  0  0
   10.9880    0.2040   23.0770 C   0  0  0  0  0  0  0  0  0  0  0  0
    9.4720    0.1250   23.0960 C   0  0  2  0  0  0  0  0  0  0  0  0
    8.9300    0.3460   21.6840 C   0  0  2  0  0  0  0  0  0  0  0  0
    9.2360    1.3300   21.0350 O   0  0  0  0  0  0  0  0  0  0  0  0
    7.9910   -0.5870   21.1470 N   0  0  0  0  0  0  0  0  0  0  0  0
    7.9770   -1.9790   21.4300 C   0  0  2  0  0  0  0  0  0  0  0  0
    8.9200   -2.5120   21.9940 O   0  0  0  0  0  0  0  0  0  0  0  0
    6.8520   -2.8170   20.8530 C   0  0  0  0  0  0  0  0  0  0  0  0
    7.3400   -4.1450   20.2870 C   0  0  0  0  0  0  0  0  0  0  0  0
    7.0950   -0.0970   20.1180 C   0  0  2  0  0  0  0  0  0  0  0  0
    7.4010   -0.2120   18.7620 C   0  0  0  0  0  0  0  0  0  0  0  0
    6.6510    0.2920   17.7720 N   0  0  0  0  0  0  0  0  0  0  0  0
    5.5510    0.9560   18.1100 C   0  0  0  0  0  0  0  0  0  0  0  0
    5.1250    1.1670   19.4500 C   0  0  0  0  0  0  0  0  0  0  0  0
    5.9210    0.6150   20.4950 C   0  0  0  0  0  0  0  0  0  0  0  0
    3.9560    1.8950   19.7860 C   0  0  0  0  0  0  0  0  0  0  0  0
    3.5930    2.0580   21.0940 C   0  0  0  0  0  0  0  0  0  0  0  0
    4.3600    1.5160   22.1170 C   0  0  0  0  0  0  0  0  0  0  0  0
    5.4960    0.8110   21.8370 C   0  0  0  0  0  0  0  0  0  0  0  0
  2  1  1  0
  3  2  1  0
  4  3  1  0
  5  4  1  0
  6  5  1  0
  7  6  1  0
  8  7  1  0
  9  2  1  0
 10  9  1  0
 10  5  1  0
 11  8  1  1
 11 10  1  0
 12 11  1  0
 12 13  1  1
 14 12  1  0
 15 14  1  0
 15 16  1  6
 17 15  1  0
 18 17  1  0
 19 14  1  1
 20 19  1  0
 21 20  1  0
 22 21  1  0
 23 22  1  0
 24 23  1  0
 24 19  1  0
 25 23  1  0
 26 25  1  0
 27 26  1  0
 28 27  1  0
 28 24  1  0
M  END
$$$$
