
     RDKit          3D

 27 30  0  0  0  0  0  0  0  0999 V2000
   14.0260   -1.5350   21.4150 Cl  0  0  0  0  0  0  0  0  0  0  0  0
   12.7320   -0.8250   22.3420 C   0  0  0  0  0  0  0  0  0  0  0  0
   11.4330   -1.2190   22.0890 C   0  0  0  0  0  0  0  0  0  0  0  0
   13.0230    0.1420   23.2810 C   0  0  0  0  0  0  0  0  0  0  0  0
   11.9860    0.7210   23.9890 C   0  0  0  0  0  0  0  0  0  0  0  0
   10.6600    0.3560   23.7560 C   0  0  2  0  0  0  0  0  0  0  0  0
    9.5670    0.9760   24.6030 C   0  0  0  0  0  0  0  0  0  0  0  0
    8.2170    0.6470   24.1210 N   0  0  0  0  0  0  0  0  0  0  0  0
    7.0880    1.2680   24.8240 C   0  0  0  0  0  0  0  0  0  0  0  0
    6.0440    0.6100   24.9720 O   0  0  0  0  0  0  0  0  0  0  0  0
    7.2150    2.5220   25.2760 N   0  0  0  0  0  0  0  0  0  0  0  0
   10.3830   -0.6160   22.7810 C   0  0  0  0  0  0  0  0  0  0  0  0
    8.9470   -1.0090   22.4950 C   0  0  1  0  0  0  0  0  0  0  0  0
    8.0860   -0.7590   23.7320 C   0  0  0  0  0  0  0  0  0  0  0  0
    8.4430   -0.1460   21.3390 C   0  0  0  0  0  0  0  0  0  0  0  0
    8.9850    0.9190   21.0260 O   0  0  0  0  0  0  0  0  0  0  0  0
    7.3380   -0.6260   20.7180 N   0  0  0  0  0  0  0  0  0  0  0  0
    6.5900   -0.0100   19.6970 C   0  0  1  0  0  0  0  0  0  0  0  0
    5.4880    0.8230   20.0680 C   0  0  0  0  0  0  0  0  0  0  0  0
    5.0610    1.0210   21.4070 C   0  0  0  0  0  0  0  0  0  0  0  0
    4.0020    1.8370   21.6940 C   0  0  0  0  0  0  0  0  0  0  0  0
    3.3160    2.4920   20.6790 C   0  0  0  0  0  0  0  0  0  0  0  0
    3.6900    2.3350   19.3750 C   0  0  0  0  0  0  0  0  0  0  0  0
    4.7850    1.5020   19.0330 C   0  0  0  0  0  0  0  0  0  0  0  0
    5.2220    1.3040   17.7000 C   0  0  0  0  0  0  0  0  0  0  0  0
    6.2360    0.5250   17.3540 N   0  0  0  0  0  0  0  0  0  0  0  0
    6.8920   -0.1070   18.3360 C   0  0  0  0  0  0  0  0  0  0  0  0
  2  1  1  0
  3  2  1  0
  4  2  1  0
  5  4  1  0
  6  5  1  1
  7  6  1  0
  8  7  1  0
  9  8  1  0
 10  9  1  0
 11  9  1  0
 12  6  1  0
 12  3  1  0
 13 12  1  0
 14 13  1  0
 14  8  1  0
 13 15  1  6
 16 15  1  0
 17 15  1  0
 18 17  1  1
 19 18  1  0
 20 19  1  0
 21 20  1  0
 22 21  1  0
 23 22  1  0
 24 23  1  0
 24 19  1  0
 25 24  1  0
 26 25  1  0
 27 26  1  0
 27 18  1  0
M  END
$$$$
