
     RDKit          3D

 34 36  0  0  0  0  0  0  0  0999 V2000
   12.9510    6.5560   23.9370 F   0  0  0  0  0  0  0  0  0  0  0  0
   12.7240    5.2850   23.5020 C   0  0  0  0  0  0  0  0  0  0  0  0
   11.5390    4.6760   23.8550 C   0  0  0  0  0  0  0  0  0  0  0  0
   13.6840    4.6760   22.7400 C   0  0  0  0  0  0  0  0  0  0  0  0
   13.4460    3.3770   22.3170 C   0  0  0  0  0  0  0  0  0  0  0  0
   12.2620    2.7360   22.6530 C   0  0  0  0  0  0  0  0  0  0  0  0
   11.2940    3.3760   23.4180 C   0  0  0  0  0  0  0  0  0  0  0  0
    9.9970    2.6790   23.7650 C   0  0  0  0  0  0  0  0  0  0  0  0
    8.7800    3.2140   23.0090 C   0  0  0  0  0  0  0  0  0  0  0  0
    7.8520    2.1530   22.6340 N   0  0  0  0  0  0  0  0  0  0  0  0
    8.0640    1.3750   21.5720 C   0  0  0  0  0  0  0  0  0  0  0  0
    9.0270    1.5100   20.8280 O   0  0  0  0  0  0  0  0  0  0  0  0
    7.0190    0.2700   21.3310 C   0  0  1  0  0  0  0  0  0  0  0  0
    6.3500    0.4010   19.9670 C   0  0  0  0  0  0  0  0  0  0  0  0
    5.1910    1.1500   19.8140 C   0  0  0  0  0  0  0  0  0  0  0  0
    4.6980    1.4200   18.5490 C   0  0  0  0  0  0  0  0  0  0  0  0
    5.3760    0.9090   17.4610 C   0  0  0  0  0  0  0  0  0  0  0  0
    6.4790    0.1580   17.5690 N   0  0  0  0  0  0  0  0  0  0  0  0
    6.9390   -0.0830   18.8050 C   0  0  0  0  0  0  0  0  0  0  0  0
    7.5380   -1.0820   21.6770 N   0  0  0  0  0  0  0  0  0  0  0  0
    6.7770   -2.1980   21.4550 C   0  0  0  0  0  0  0  0  0  0  0  0
    7.4160   -3.5620   21.6610 C   0  0  0  0  0  0  0  0  0  0  0  0
    7.2640   -4.4750   20.4340 C   0  0  0  0  0  0  0  0  0  0  0  0
    5.6070   -2.1210   21.0980 O   0  0  0  0  0  0  0  0  0  0  0  0
    8.8210   -1.1530   22.3290 C   0  0  0  0  0  0  0  0  0  0  0  0
    9.9820   -1.4010   21.5950 C   0  0  0  0  0  0  0  0  0  0  0  0
   11.2100   -1.4780   22.2360 C   0  0  0  0  0  0  0  0  0  0  0  0
   11.3150   -1.3110   23.6160 C   0  0  0  0  0  0  0  0  0  0  0  0
   12.6610   -1.4150   24.3500 C   0  0  1  0  0  0  0  0  0  0  0  0
   12.5500   -2.4480   25.4790 C   0  0  0  0  0  0  0  0  0  0  0  0
   13.8180   -1.8370   23.4310 C   0  0  0  0  0  0  0  0  0  0  0  0
   13.0280   -0.0590   24.9620 C   0  0  0  0  0  0  0  0  0  0  0  0
   10.1510   -1.0550   24.3380 C   0  0  0  0  0  0  0  0  0  0  0  0
    8.9170   -0.9830   23.7120 C   0  0  0  0  0  0  0  0  0  0  0  0
  2  1  1  0
  3  2  2  0
  4  2  1  0
  5  4  2  0
  6  5  1  0
  7  6  2  0
  7  3  1  0
  8  7  1  0
  9  8  1  0
 10  9  1  0
 11 10  1  0
 12 11  2  0
 13 11  1  6
 14 13  1  0
 15 14  2  0
 16 15  1  0
 17 16  2  0
 18 17  1  0
 19 18  2  0
 19 14  1  0
 20 13  1  0
 21 20  1  0
 22 21  1  0
 23 22  1  0
 24 21  2  0
 25 20  1  0
 26 25  2  0
 27 26  1  0
 28 27  2  0
 29 28  1  0
 29 30  1  1
 31 29  1  0
 32 29  1  0
 33 28  1  0
 34 33  2  0
 34 25  1  0
M  END
