
     RDKit          3D

 19 20  0  0  0  0  0  0  0  0999 V2000
    6.7810   -5.0880   21.8200 N   0  0  0  0  0  0  0  0  0  0  0  0
    7.9700   -3.6010   20.2830 C   0  0  0  0  0  0  0  0  0  0  0  0
    5.9290   -4.6930   19.7660 O   0  0  0  0  0  0  0  0  0  0  0  0
    6.8070   -4.5070   20.5990 C   0  0  0  0  0  0  0  0  0  0  0  0
    1.7480   -3.7760   25.8060 C   0  0  0  0  0  0  0  0  0  0  0  0
    2.7630   -4.7120   25.7700 C   0  0  0  0  0  0  0  0  0  0  0  0
    5.8540   -6.1670   22.1640 C   0  0  0  0  0  0  0  0  0  0  0  0
    5.0470   -5.8010   23.3820 C   0  0  0  0  0  0  0  0  0  0  0  0
    6.8380   -4.3530   24.1450 C   0  0  0  0  0  0  0  0  0  0  0  0
    7.6550   -4.7220   22.9370 C   0  0  0  0  0  0  0  0  0  0  0  0
    4.0560   -4.3310   26.0590 C   0  0  0  0  0  0  0  0  0  0  0  0
    4.3510   -3.0210   26.3740 C   0  0  0  0  0  0  0  0  0  0  0  0
    3.3380   -2.0810   26.4090 C   0  0  0  0  0  0  0  0  0  0  0  0
    2.0480   -2.4710   26.1260 C   0  0  0  0  0  0  0  0  0  0  0  0
    5.9700   -5.4900   24.4840 N   0  0  0  0  0  0  0  0  0  0  0  0
    6.3990   -5.1010   26.8790 O   0  0  0  0  0  0  0  0  0  0  0  0
    4.7690   -6.8220   26.1700 O   0  0  0  0  0  0  0  0  0  0  0  0
    5.3550   -5.5300   26.0010 S   0  0  1  0  0  0  0  0  0  0  0  0
    0.7730   -1.2880   26.1690 Cl  0  0  0  0  0  0  0  0  0  0  0  0
  4  3  2  0
  4  2  1  0
  4  1  1  0
  6  5  2  0
  7  1  1  0
  8  7  1  0
 10  9  1  0
 10  1  1  0
 11  6  1  0
 12 11  2  0
 13 12  1  0
 14 13  2  0
 14  5  1  0
 15  8  1  0
 15  9  1  0
 18 17  2  0
 18 11  1  6
 18 15  1  0
 18 16  2  0
 19 14  1  0
M  END
