
     RDKit          3D

 27 30  0  0  0  0  0  0  0  0999 V2000
    9.3100    1.1570   20.9420 O   0  0  0  0  0  0  0  0  0  0  0  0
    8.8260    0.1630   21.4670 C   0  0  0  0  0  0  0  0  0  0  0  0
    9.4470   -0.3830   22.8100 C   0  0  1  0  0  0  0  0  0  0  0  0
   10.9610   -0.3640   22.8590 C   0  0  0  0  0  0  0  0  0  0  0  0
   11.7240   -1.0460   21.9130 C   0  0  0  0  0  0  0  0  0  0  0  0
   13.0950   -0.9640   21.9770 C   0  0  0  0  0  0  0  0  0  0  0  0
   13.8170   -1.5390   20.9820 F   0  0  0  0  0  0  0  0  0  0  0  0
   13.7760   -0.2710   22.9450 C   0  0  0  0  0  0  0  0  0  0  0  0
   13.0190    0.4120   23.8570 C   0  0  0  0  0  0  0  0  0  0  0  0
   13.6350    1.1170   24.8310 F   0  0  0  0  0  0  0  0  0  0  0  0
   11.6350    0.3960   23.8380 C   0  0  0  0  0  0  0  0  0  0  0  0
   10.9880    1.1490   24.7830 O   0  0  0  0  0  0  0  0  0  0  0  0
    9.6480    0.7250   25.0590 C   0  0  0  0  0  0  0  0  0  0  0  0
    8.8390    0.6410   23.7840 C   0  0  0  0  0  0  0  0  0  0  0  0
    8.8650   -1.6040   23.2970 O   0  0  0  0  0  0  0  0  0  0  0  0
    9.3160   -2.8340   22.7180 C   0  0  0  0  0  0  0  0  0  0  0  0
    7.7110   -0.4450   21.0040 N   0  0  0  0  0  0  0  0  0  0  0  0
    6.9140   -0.0030   19.9280 C   0  0  0  0  0  0  0  0  0  0  0  0
    5.7610    0.7880   20.2200 C   0  0  0  0  0  0  0  0  0  0  0  0
    5.3050    1.0660   21.5360 C   0  0  0  0  0  0  0  0  0  0  0  0
    4.2120    1.8580   21.7500 C   0  0  0  0  0  0  0  0  0  0  0  0
    3.5220    2.4140   20.6810 C   0  0  0  0  0  0  0  0  0  0  0  0
    3.9170    2.1730   19.3960 C   0  0  0  0  0  0  0  0  0  0  0  0
    5.0410    1.3510   19.1290 C   0  0  0  0  0  0  0  0  0  0  0  0
    5.5040    1.0720   17.8200 C   0  0  0  0  0  0  0  0  0  0  0  0
    6.5660    0.3290   17.5480 N   0  0  0  0  0  0  0  0  0  0  0  0
    7.2390   -0.1910   18.5840 C   0  0  0  0  0  0  0  0  0  0  0  0
  2  1  2  0
  3  2  1  0
  4  3  1  0
  5  4  2  0
  6  5  1  0
  7  6  1  0
  8  6  2  0
  9  8  1  0
 10  9  1  0
 11  9  2  0
 11  4  1  0
 12 11  1  0
 13 12  1  0
 14 13  1  0
 14  3  1  0
  3 15  1  1
 16 15  1  0
 17  2  1  0
 18 17  1  0
 19 18  1  0
 20 19  2  0
 21 20  1  0
 22 21  2  0
 23 22  1  0
 24 23  2  0
 24 19  1  0
 25 24  1  0
 26 25  2  0
 27 26  1  0
 27 18  2  0
M  END
