
     RDKit          3D

 25 28  0  0  0  0  0  0  0  0999 V2000
    9.3360    1.3260   21.0750 O   0  0  0  0  0  0  0  0  0  0  0  0
    8.8820    0.2740   21.5090 C   0  0  0  0  0  0  0  0  0  0  0  0
    9.5910   -0.5020   22.6870 C   0  0  1  0  0  0  0  0  0  0  0  0
   11.0930   -0.2510   22.6460 C   0  0  0  0  0  0  0  0  0  0  0  0
   11.9390   -1.0500   21.8800 C   0  0  0  0  0  0  0  0  0  0  0  0
   13.2910   -0.7690   21.8510 C   0  0  0  0  0  0  0  0  0  0  0  0
   14.3320   -1.7550   20.8580 Cl  0  0  0  0  0  0  0  0  0  0  0  0
   13.8350    0.2870   22.5570 C   0  0  0  0  0  0  0  0  0  0  0  0
   13.0090    1.0850   23.3270 C   0  0  0  0  0  0  0  0  0  0  0  0
   11.6530    0.8000   23.3870 C   0  0  0  0  0  0  0  0  0  0  0  0
   10.9400    1.5430   24.2990 O   0  0  0  0  0  0  0  0  0  0  0  0
    9.5020    1.3910   24.2980 C   0  0  0  0  0  0  0  0  0  0  0  0
    9.0580   -0.0340   24.0450 C   0  0  0  0  0  0  0  0  0  0  0  0
    9.3280   -1.9020   22.5930 O   0  0  0  0  0  0  0  0  0  0  0  0
    7.7770   -0.3100   21.0000 N   0  0  0  0  0  0  0  0  0  0  0  0
    7.0020    0.1200   19.9100 C   0  0  0  0  0  0  0  0  0  0  0  0
    5.8540    0.9320   20.1640 C   0  0  0  0  0  0  0  0  0  0  0  0
    5.4240    1.3040   21.4630 C   0  0  0  0  0  0  0  0  0  0  0  0
    4.3100    2.0760   21.6390 C   0  0  0  0  0  0  0  0  0  0  0  0
    3.5740    2.5160   20.5490 C   0  0  0  0  0  0  0  0  0  0  0  0
    3.9490    2.1880   19.2770 C   0  0  0  0  0  0  0  0  0  0  0  0
    5.0990    1.3900   19.0480 C   0  0  0  0  0  0  0  0  0  0  0  0
    5.5420    1.0200   17.7570 C   0  0  0  0  0  0  0  0  0  0  0  0
    6.6120    0.2730   17.5210 N   0  0  0  0  0  0  0  0  0  0  0  0
    7.3090   -0.1640   18.5790 C   0  0  0  0  0  0  0  0  0  0  0  0
  2  1  2  0
  3  2  1  0
  4  3  1  0
  5  4  2  0
  6  5  1  0
  7  6  1  0
  8  6  2  0
  9  8  1  0
 10  9  2  0
 10  4  1  0
 11 10  1  0
 12 11  1  0
 13 12  1  0
 13  3  1  0
  3 14  1  6
 15  2  1  0
 16 15  1  0
 17 16  1  0
 18 17  2  0
 19 18  1  0
 20 19  2  0
 21 20  1  0
 22 21  2  0
 22 17  1  0
 23 22  1  0
 24 23  2  0
 25 24  1  0
 25 16  2  0
M  END
