
     RDKit          3D

 17 18  0  0  0  0  0  0  0  0999 V2000
   22.5250  -22.6490   19.7250 N   0  0  0  0  0  0  0  0  0  0  0  0
   24.9670  -20.0630   19.8370 C   0  0  0  0  0  0  0  0  0  0  0  0
   23.8670  -20.8850   20.1440 O   0  0  0  0  0  0  0  0  0  0  0  0
   23.6160  -21.9430   19.2950 C   0  0  0  0  0  0  0  0  0  0  0  0
   21.4400  -21.8960   14.5120 C   0  0  0  0  0  0  0  0  0  0  0  0
   21.6790  -22.9220   15.4360 C   0  0  0  0  0  0  0  0  0  0  0  0
   22.0650  -23.7750   19.0590 C   0  0  0  0  0  0  0  0  0  0  0  0
   21.3100  -25.9590   18.3090 C   0  0  0  0  0  0  0  0  0  0  0  0
   20.9160  -27.3790   18.2040 C   0  0  0  0  0  0  0  0  0  0  0  0
   21.5550  -23.8220   17.7500 C   0  0  0  0  0  0  0  0  0  0  0  0
   21.3720  -22.7230   16.7930 C   0  0  0  0  0  0  0  0  0  0  0  0
   20.8380  -21.5010   17.2200 C   0  0  0  0  0  0  0  0  0  0  0  0
   20.5990  -20.4790   16.2890 C   0  0  0  0  0  0  0  0  0  0  0  0
   20.9010  -20.6740   14.9340 C   0  0  0  0  0  0  0  0  0  0  0  0
   21.1290  -25.0980   17.3400 N   0  0  0  0  0  0  0  0  0  0  0  0
   24.2820  -22.1840   18.3030 O   0  0  0  0  0  0  0  0  0  0  0  0
   22.0150  -25.3280   19.7840 S   0  0  0  0  0  0  0  0  0  0  0  0
  3  2  1  0
  4  1  1  0
  4  3  1  0
  6  5  2  0
  7  1  1  0
  9  8  1  0
 10  7  2  0
 11  6  1  0
 11 10  1  0
 12 11  2  0
 13 12  1  0
 14  5  1  0
 14 13  2  0
 15 10  1  0
 15  8  2  0
 16  4  2  0
 17  8  1  0
 17  7  1  0
M  END
