
     RDKit          3D

 30 34  0  0  0  0  0  0  0  0999 V2000
    8.5870    1.1570   21.2670 O   0  0  0  0  0  0  0  0  0  0  0  0
    8.3280   -0.0420   21.2080 C   0  0  0  0  0  0  0  0  0  0  0  0
    7.6070   -0.5910   20.2120 N   0  0  0  0  0  0  0  0  0  0  0  0
    6.5850   -0.0510   19.4040 C   0  0  0  0  0  0  0  0  0  0  0  0
    5.6200    0.8780   19.9180 C   0  0  0  0  0  0  0  0  0  0  0  0
    5.3330    1.0380   21.3020 C   0  0  0  0  0  0  0  0  0  0  0  0
    4.3110    1.8430   21.7210 C   0  0  0  0  0  0  0  0  0  0  0  0
    3.5300    2.5320   20.8040 C   0  0  0  0  0  0  0  0  0  0  0  0
    3.7750    2.4260   19.4640 C   0  0  0  0  0  0  0  0  0  0  0  0
    4.8190    1.5950   18.9850 C   0  0  0  0  0  0  0  0  0  0  0  0
    5.0500    1.3690   17.6100 C   0  0  0  0  0  0  0  0  0  0  0  0
    5.9360    0.5110   17.1340 N   0  0  0  0  0  0  0  0  0  0  0  0
    6.6600   -0.1820   18.0180 C   0  0  0  0  0  0  0  0  0  0  0  0
    8.9430   -1.0580   22.1740 C   0  0  1  0  0  0  0  0  0  0  0  0
   10.3540   -0.6710   22.5650 C   0  0  0  0  0  0  0  0  0  0  0  0
   10.5600    0.2580   23.5910 C   0  0  0  0  0  0  0  0  0  0  0  0
   11.8460    0.6820   23.9180 C   0  0  0  0  0  0  0  0  0  0  0  0
   12.9320    0.1690   23.2290 C   0  0  0  0  0  0  0  0  0  0  0  0
   11.4560   -1.2000   21.9010 C   0  0  0  0  0  0  0  0  0  0  0  0
   12.7240   -0.7710   22.2380 C   0  0  0  0  0  0  0  0  0  0  0  0
   14.0910   -1.4220   21.3730 Cl  0  0  0  0  0  0  0  0  0  0  0  0
    8.1120   -1.1800   23.4670 C   0  0  0  0  0  0  0  0  0  0  0  0
    8.1020    0.1430   24.2380 C   0  0  0  0  0  0  0  0  0  0  0  0
    9.4350    0.7500   24.3460 N   0  0  0  0  0  0  0  0  0  0  0  0
    9.5310    1.9320   25.1790 C   0  0  0  0  0  0  0  0  0  0  0  0
    9.6500    1.5750   26.6240 C   0  0  0  0  0  0  0  0  0  0  0  0
   10.2620    0.4430   27.0720 N   0  0  0  0  0  0  0  0  0  0  0  0
   10.2080    0.4620   28.4360 C   0  0  0  0  0  0  0  0  0  0  0  0
    9.5560    1.6220   28.7770 C   0  0  0  0  0  0  0  0  0  0  0  0
    9.2050    2.3190   27.6420 N   0  0  0  0  0  0  0  0  0  0  0  0
  2  1  2  0
  3  2  1  0
  4  3  1  0
  5  4  1  0
  6  5  2  0
  7  6  1  0
  8  7  2  0
  9  8  1  0
 10  9  2  0
 10  5  1  0
 11 10  1  0
 12 11  2  0
 13 12  1  0
 13  4  2  0
 14  2  1  6
 15 14  1  0
 16 15  1  0
 17 16  2  0
 18 17  1  0
 19 15  2  0
 20 19  1  0
 20 18  2  0
 21 20  1  0
 22 14  1  0
 23 22  1  0
 24 23  1  0
 24 16  1  0
 25 24  1  0
 26 25  1  0
 27 26  2  0
 28 27  1  0
 29 28  2  0
 30 26  1  0
 30 29  1  0
M  END
> <BADATOMS>
24;25;29;26;27;28
> <BADCOMMENTS>
Weak Density;Weak Density;Weak Density;Weak Density;Weak Density;Weak Density
> <BADATOMNAMES>
[HET]1.C25;[HET]1.C26;[HET]1.N30;[HET]1.N27;[HET]1.C28;[HET]1.C29