
     RDKit          3D

 37 42  0  0  0  0  0  0  0  0999 V2000
    9.2270    1.1360   21.0490 O   0  0  0  0  0  0  0  0  0  0  0  0
    8.6920    0.1550   21.5460 C   0  0  0  0  0  0  0  0  0  0  0  0
    7.5590   -0.3870   21.0440 N   0  0  0  0  0  0  0  0  0  0  0  0
    6.8010    0.0810   19.9460 C   0  0  0  0  0  0  0  0  0  0  0  0
    5.6460    0.8840   20.2060 C   0  0  0  0  0  0  0  0  0  0  0  0
    5.1890    1.2100   21.5100 C   0  0  0  0  0  0  0  0  0  0  0  0
    4.0960    2.0090   21.6900 C   0  0  0  0  0  0  0  0  0  0  0  0
    3.4020    2.5190   20.5990 C   0  0  0  0  0  0  0  0  0  0  0  0
    3.7950    2.2240   19.3250 C   0  0  0  0  0  0  0  0  0  0  0  0
    4.9250    1.4000   19.0920 C   0  0  0  0  0  0  0  0  0  0  0  0
    5.3940    1.0770   17.7950 C   0  0  0  0  0  0  0  0  0  0  0  0
    6.4600    0.3300   17.5540 N   0  0  0  0  0  0  0  0  0  0  0  0
    7.1290   -0.1500   18.6100 C   0  0  0  0  0  0  0  0  0  0  0  0
    9.2620   -0.4980   22.8240 C   0  0  1  0  0  0  0  0  0  0  0  0
   10.7570   -0.1710   22.8450 C   0  0  0  0  0  0  0  0  0  0  0  0
   11.6670   -0.9590   22.1380 C   0  0  0  0  0  0  0  0  0  0  0  0
   13.0140   -0.6510   22.1810 C   0  0  1  0  0  0  0  0  0  0  0  0
   14.1210   -1.5740   21.2020 Cl  0  0  0  0  0  0  0  0  0  0  0  0
   13.4960    0.4080   22.9150 C   0  0  0  0  0  0  0  0  0  0  0  0
   12.6080    1.2000   23.6210 C   0  0  0  0  0  0  0  0  0  0  0  0
   11.2550    0.9050   23.5900 C   0  0  2  0  0  0  0  0  0  0  0  0
   10.4670    1.6820   24.4060 O   0  0  0  0  0  0  0  0  0  0  0  0
    9.0500    1.6550   24.1380 C   0  0  0  0  0  0  0  0  0  0  0  0
    8.5330    0.2430   23.9680 C   0  0  0  0  0  0  0  0  0  0  0  0
    9.0720   -2.0320   22.9290 C   0  0  0  0  0  0  0  0  0  0  0  0
    9.5210   -2.6480   24.2400 C   0  0  0  0  0  0  0  0  0  0  0  0
   10.1480   -2.0110   25.0760 O   0  0  0  0  0  0  0  0  0  0  0  0
    9.2260   -3.9470   24.4860 N   0  0  0  0  0  0  0  0  0  0  0  0
   10.0900   -4.8430   25.2650 C   0  0  0  0  0  0  0  0  0  0  0  0
    9.4380   -5.1790   26.6070 C   0  0  0  0  0  0  0  0  0  0  0  0
    8.0050   -5.4500   26.4270 N   0  0  0  0  0  0  0  0  0  0  0  0
    7.3060   -5.1710   25.3050 C   0  0  0  0  0  0  0  0  0  0  0  0
    7.9470   -4.5510   24.0910 C   0  0  2  0  0  0  0  0  0  0  0  0
    8.1080   -5.5900   22.9900 C   0  0  0  0  0  0  0  0  0  0  0  0
    6.0420   -5.5000   25.4610 N   0  0  0  0  0  0  0  0  0  0  0  0
    5.9120   -6.0160   26.7500 N   0  0  0  0  0  0  0  0  0  0  0  0
    7.1000   -5.9710   27.2930 C   0  0  0  0  0  0  0  0  0  0  0  0
  2  1  1  0
  3  2  1  0
  4  3  1  0
  5  4  1  0
  6  5  1  0
  7  6  1  0
  8  7  1  0
  9  8  1  0
 10  9  1  0
 10  5  1  0
 11 10  1  0
 12 11  1  0
 13 12  1  0
 13  4  1  0
 14  2  1  0
 15 14  1  0
 16 15  1  0
 17 16  1  0
 17 18  1  6
 19 17  1  0
 20 19  1  0
 21 15  1  0
 21 20  1  1
 22 21  1  0
 23 22  1  0
 24 23  1  0
 24 14  1  0
 14 25  1  6
 26 25  1  0
 27 26  1  0
 28 26  1  0
 29 28  1  0
 30 29  1  0
 31 30  1  0
 32 31  1  0
 33 32  1  0
 33 28  1  0
 33 34  1  6
 35 32  1  0
 36 35  1  0
 37 36  1  0
 37 31  1  0
M  END
$$$$
