
     RDKit          3D

 35 39  0  0  0  0  0  0  0  0999 V2000
    6.1050    7.5590   23.2150 O   0  0  0  0  0  0  0  0  0  0  0  0
    7.2640    6.7260   23.0300 S   0  0  2  0  0  0  0  0  0  0  0  0
    8.4990    7.3440   22.6240 O   0  0  0  0  0  0  0  0  0  0  0  0
    6.8700    5.2300   22.1330 C   0  0  0  0  0  0  0  0  0  0  0  0
    7.4960    5.4620   24.2710 C   0  0  0  0  0  0  0  0  0  0  0  0
    6.7350    4.4070   23.4380 C   0  0  1  0  0  0  0  0  0  0  0  0
    5.2680    4.2720   23.8530 C   0  0  0  0  0  0  0  0  0  0  0  0
    7.4240    3.0430   23.3110 C   0  0  0  0  0  0  0  0  0  0  0  0
    7.6100    2.0680   24.7960 S   0  0  1  0  0  0  0  0  0  0  0  0
    8.1130    2.9100   25.8340 O   0  0  0  0  0  0  0  0  0  0  0  0
    6.4020    1.3370   25.0200 O   0  0  0  0  0  0  0  0  0  0  0  0
    8.7660    0.9820   24.4600 N   0  0  0  0  0  0  0  0  0  0  0  0
   10.1500    1.2810   24.8450 C   0  0  0  0  0  0  0  0  0  0  0  0
   11.1110    0.5550   23.9320 C   0  0  0  0  0  0  0  0  0  0  0  0
   12.4520    0.9360   23.9320 C   0  0  0  0  0  0  0  0  0  0  0  0
   13.3740    0.3080   23.1190 C   0  0  0  0  0  0  0  0  0  0  0  0
   12.9620   -0.7390   22.3270 C   0  0  0  0  0  0  0  0  0  0  0  0
   14.1290   -1.5560   21.3220 Cl  0  0  0  0  0  0  0  0  0  0  0  0
   11.6420   -1.1510   22.3020 C   0  0  0  0  0  0  0  0  0  0  0  0
   10.6950   -0.4870   23.0850 C   0  0  0  0  0  0  0  0  0  0  0  0
    9.2210   -0.8390   22.9700 C   0  0  1  0  0  0  0  0  0  0  0  0
    8.4750   -0.4470   24.2460 C   0  0  0  0  0  0  0  0  0  0  0  0
    8.6380   -0.0650   21.7830 C   0  0  0  0  0  0  0  0  0  0  0  0
    9.1780    0.9500   21.3320 O   0  0  0  0  0  0  0  0  0  0  0  0
    7.4850   -0.5820   21.2780 N   0  0  0  0  0  0  0  0  0  0  0  0
    6.7410   -0.1180   20.1610 C   0  0  0  0  0  0  0  0  0  0  0  0
    5.5520    0.6540   20.3830 C   0  0  0  0  0  0  0  0  0  0  0  0
    4.9790    0.8730   21.6640 C   0  0  0  0  0  0  0  0  0  0  0  0
    3.8540    1.6370   21.8110 C   0  0  0  0  0  0  0  0  0  0  0  0
    3.2530    2.2320   20.7090 C   0  0  0  0  0  0  0  0  0  0  0  0
    3.7640    2.0500   19.4550 C   0  0  0  0  0  0  0  0  0  0  0  0
    4.9120    1.2430   19.2540 C   0  0  0  0  0  0  0  0  0  0  0  0
    5.4610    0.9840   17.9740 C   0  0  0  0  0  0  0  0  0  0  0  0
    6.5380    0.2410   17.7640 N   0  0  0  0  0  0  0  0  0  0  0  0
    7.1520   -0.2810   18.8360 C   0  0  0  0  0  0  0  0  0  0  0  0
  2  1  2  0
  3  2  2  0
  2  4  1  6
  5  2  1  0
  6  4  1  0
  6  5  1  0
  6  7  1  1
  8  6  1  0
  9  8  1  6
 10  9  2  0
 11  9  2  0
 12  9  1  0
 13 12  1  0
 14 13  1  0
 15 14  2  0
 16 15  1  0
 17 16  2  0
 18 17  1  0
 19 17  1  0
 20 19  2  0
 20 14  1  0
 21 20  1  0
 22 21  1  0
 22 12  1  0
 21 23  1  6
 24 23  2  0
 25 23  1  0
 26 25  1  0
 27 26  1  0
 28 27  2  0
 29 28  1  0
 30 29  2  0
 31 30  1  0
 32 31  2  0
 32 27  1  0
 33 32  1  0
 34 33  2  0
 35 34  1  0
 35 26  2  0
M  END
