
     RDKit          3D

 36 40  0  0  0  0  0  0  0  0999 V2000
    8.9090    1.0280   21.0310 O   0  0  0  0  0  0  0  0  0  0  0  0
    8.4100   -0.0580   21.3380 C   0  0  0  0  0  0  0  0  0  0  0  0
    7.2680   -0.5470   20.7970 N   0  0  0  0  0  0  0  0  0  0  0  0
    6.4860    0.0300   19.7800 C   0  0  1  0  0  0  0  0  0  0  0  0
    5.3780    0.8620   20.1420 C   0  0  0  0  0  0  0  0  0  0  0  0
    4.9170    1.0310   21.4740 C   0  0  0  0  0  0  0  0  0  0  0  0
    3.8850    1.8820   21.7590 C   0  0  0  0  0  0  0  0  0  0  0  0
    3.2590    2.5990   20.7460 C   0  0  0  0  0  0  0  0  0  0  0  0
    3.6550    2.4590   19.4460 C   0  0  0  0  0  0  0  0  0  0  0  0
    4.7190    1.5850   19.1080 C   0  0  0  0  0  0  0  0  0  0  0  0
    5.1780    1.4020   17.7820 C   0  0  0  0  0  0  0  0  0  0  0  0
    6.1890    0.6160   17.4440 N   0  0  0  0  0  0  0  0  0  0  0  0
    6.8180   -0.0440   18.4250 C   0  0  0  0  0  0  0  0  0  0  0  0
    9.0650   -0.9940   22.3830 C   0  0  1  0  0  0  0  0  0  0  0  0
   10.4860   -0.5850   22.7540 C   0  0  0  0  0  0  0  0  0  0  0  0
   10.7400    0.5360   23.5350 C   0  0  0  0  0  0  0  0  0  0  0  0
   12.0410    0.9150   23.8290 C   0  0  0  0  0  0  0  0  0  0  0  0
   13.1100    0.1750   23.3470 C   0  0  0  0  0  0  0  0  0  0  0  0
   11.5580   -1.3350   22.2810 C   0  0  0  0  0  0  0  0  0  0  0  0
   12.8490   -0.9370   22.5700 C   0  0  0  0  0  0  0  0  0  0  0  0
   14.1760   -1.8280   21.8880 Cl  0  0  0  0  0  0  0  0  0  0  0  0
    8.2460   -1.3350   23.5370 N   0  0  0  0  0  0  0  0  0  0  0  0
    7.4770   -0.4530   24.1890 C   0  0  0  0  0  0  0  0  0  0  0  0
    7.5150    0.7630   23.9980 O   0  0  0  0  0  0  0  0  0  0  0  0
    6.5460   -1.0280   25.2470 C   0  0  1  0  0  0  0  0  0  0  0  0
    6.5430   -2.4710   25.2120 O   0  0  0  0  0  0  0  0  0  0  0  0
    7.2660   -3.0360   26.3340 C   0  0  2  0  0  0  0  0  0  0  0  0
    7.9290   -1.8370   27.0060 C   0  0  0  0  0  0  0  0  0  0  0  0
    6.9860   -0.6780   26.6530 C   0  0  0  0  0  0  0  0  0  0  0  0
    8.2780   -4.0880   25.8580 C   0  0  0  0  0  0  0  0  0  0  0  0
    8.7030   -4.0660   24.7140 O   0  0  0  0  0  0  0  0  0  0  0  0
    8.6900   -5.0150   26.7430 N   0  0  0  0  0  0  0  0  0  0  0  0
    8.0750   -5.3200   28.0370 C   0  0  0  0  0  0  0  0  0  0  0  0
    9.2370   -5.8090   28.8570 C   0  0  0  0  0  0  0  0  0  0  0  0
   10.0950   -6.5460   27.8430 C   0  0  0  0  0  0  0  0  0  0  0  0
    9.8610   -5.8640   26.5010 C   0  0  0  0  0  0  0  0  0  0  0  0
  2  1  1  0
  3  2  1  0
  4  3  1  1
  5  4  1  0
  6  5  1  0
  7  6  1  0
  8  7  1  0
  9  8  1  0
 10  9  1  0
 10  5  1  0
 11 10  1  0
 12 11  1  0
 13 12  1  0
 13  4  1  0
 14  2  1  0
 15 14  1  0
 16 15  1  0
 17 16  1  0
 18 17  1  0
 19 15  1  0
 20 19  1  0
 20 18  1  0
 21 20  1  0
 14 22  1  1
 23 22  1  0
 24 23  1  0
 25 23  1  6
 26 25  1  0
 27 26  1  0
 28 27  1  0
 29 28  1  0
 29 25  1  0
 27 30  1  6
 31 30  1  0
 32 30  1  0
 33 32  1  0
 34 33  1  0
 35 34  1  0
 36 35  1  0
 36 32  1  0
M  END
$$$$
