
     RDKit          3D

 33 37  0  0  0  0  0  0  0  0999 V2000
    8.8770    6.8310   22.3030 N   0  0  0  0  0  0  0  0  0  0  0  0
    8.0900    6.0420   22.5410 C   0  0  0  0  0  0  0  0  0  0  0  0
    7.1040    4.9990   22.8760 C   0  0  2  0  0  0  0  0  0  0  0  0
    7.0400    4.6730   24.3900 C   0  0  0  0  0  0  0  0  0  0  0  0
    7.5370    3.5260   22.6570 C   0  0  0  0  0  0  0  0  0  0  0  0
    7.6910    3.3590   24.1280 N   0  0  0  0  0  0  0  0  0  0  0  0
    7.7010    2.0460   25.0500 S   0  0  1  0  0  0  0  0  0  0  0  0
    8.1060    2.4750   26.3440 O   0  0  0  0  0  0  0  0  0  0  0  0
    6.4720    1.3510   24.8700 O   0  0  0  0  0  0  0  0  0  0  0  0
    8.8720    1.1240   24.4730 N   0  0  0  0  0  0  0  0  0  0  0  0
   10.2690    1.3260   24.8700 C   0  0  0  0  0  0  0  0  0  0  0  0
    8.5330   -0.2860   24.2000 C   0  0  0  0  0  0  0  0  0  0  0  0
    9.2830   -0.7310   22.9450 C   0  0  2  0  0  0  0  0  0  0  0  0
   10.7660   -0.4170   23.0630 C   0  0  0  0  0  0  0  0  0  0  0  0
   11.2040    0.6010   23.9280 C   0  0  0  0  0  0  0  0  0  0  0  0
   12.5530    0.9520   23.9350 C   0  0  0  0  0  0  0  0  0  0  0  0
   13.4640    0.3050   23.1240 C   0  0  0  0  0  0  0  0  0  0  0  0
   11.6980   -1.0890   22.2690 C   0  0  0  0  0  0  0  0  0  0  0  0
   13.0290   -0.7120   22.3110 C   0  0  0  0  0  0  0  0  0  0  0  0
   14.1760   -1.5300   21.2890 Cl  0  0  0  0  0  0  0  0  0  0  0  0
    8.7180   -0.0060   21.7180 C   0  0  0  0  0  0  0  0  0  0  0  0
    9.2990    0.9440   21.2010 O   0  0  0  0  0  0  0  0  0  0  0  0
    7.5300   -0.4900   21.2640 N   0  0  0  0  0  0  0  0  0  0  0  0
    6.7660   -0.0300   20.1610 C   0  0  0  0  0  0  0  0  0  0  0  0
    5.6050    0.7770   20.3970 C   0  0  0  0  0  0  0  0  0  0  0  0
    5.0770    1.0480   21.6860 C   0  0  0  0  0  0  0  0  0  0  0  0
    3.9650    1.8290   21.8420 C   0  0  0  0  0  0  0  0  0  0  0  0
    3.3260    2.3810   20.7390 C   0  0  0  0  0  0  0  0  0  0  0  0
    3.7930    2.1490   19.4770 C   0  0  0  0  0  0  0  0  0  0  0  0
    4.9360    1.3370   19.2680 C   0  0  0  0  0  0  0  0  0  0  0  0
    5.4470    1.0350   17.9790 C   0  0  0  0  0  0  0  0  0  0  0  0
    6.5110    0.2730   17.7600 N   0  0  0  0  0  0  0  0  0  0  0  0
    7.1390   -0.2360   18.8300 C   0  0  0  0  0  0  0  0  0  0  0  0
  2  1  3  0
  3  2  1  1
  4  3  1  0
  5  3  1  0
  6  5  1  0
  6  4  1  0
  7  6  1  6
  8  7  2  0
  9  7  2  0
 10  7  1  0
 11 10  1  0
 12 10  1  0
 13 12  1  0
 14 13  1  0
 15 14  2  0
 15 11  1  0
 16 15  1  0
 17 16  2  0
 18 14  1  0
 19 18  2  0
 19 17  1  0
 20 19  1  0
 13 21  1  6
 22 21  2  0
 23 21  1  0
 24 23  1  0
 25 24  1  0
 26 25  2  0
 27 26  1  0
 28 27  2  0
 29 28  1  0
 30 29  2  0
 30 25  1  0
 31 30  1  0
 32 31  2  0
 33 32  1  0
 33 24  2  0
M  END
