
     RDKit          3D

 31 35  0  0  0  0  0  0  0  0999 V2000
    9.4230    1.3540   21.1940 O   0  0  0  0  0  0  0  0  0  0  0  0
    8.8670    0.3690   21.6380 C   0  0  0  0  0  0  0  0  0  0  0  0
    7.7790   -0.2440   21.0920 N   0  0  0  0  0  0  0  0  0  0  0  0
    6.9530    0.2900   20.0470 C   0  0  0  0  0  0  0  0  0  0  0  0
    5.7810    1.0470   20.3540 C   0  0  0  0  0  0  0  0  0  0  0  0
    5.3870    1.3990   21.6710 C   0  0  0  0  0  0  0  0  0  0  0  0
    4.2680    2.1470   21.8940 C   0  0  0  0  0  0  0  0  0  0  0  0
    3.4810    2.5760   20.8360 C   0  0  0  0  0  0  0  0  0  0  0  0
    3.8100    2.2570   19.5490 C   0  0  0  0  0  0  0  0  0  0  0  0
    4.9680    1.4900   19.2720 C   0  0  0  0  0  0  0  0  0  0  0  0
    5.3760    1.1530   17.9570 C   0  0  0  0  0  0  0  0  0  0  0  0
    6.4710    0.4660   17.6750 N   0  0  0  0  0  0  0  0  0  0  0  0
    7.2250    0.0560   18.7040 C   0  0  0  0  0  0  0  0  0  0  0  0
    7.4710   -1.5340   21.7350 C   0  0  0  0  0  0  0  0  0  0  0  0
    8.6830   -1.7990   22.6240 C   0  0  0  0  0  0  0  0  0  0  0  0
    9.2560   -0.3910   22.9070 C   0  0  1  0  0  0  0  0  0  0  0  0
   10.7750   -0.4000   23.1080 C   0  0  0  0  0  0  0  0  0  0  0  0
   11.5930   -1.1030   22.2240 C   0  0  0  0  0  0  0  0  0  0  0  0
   12.9630   -1.0730   22.4030 C   0  0  0  0  0  0  0  0  0  0  0  0
   13.9810   -1.9120   21.2690 Cl  0  0  0  0  0  0  0  0  0  0  0  0
   13.5430   -0.3810   23.4370 C   0  0  0  0  0  0  0  0  0  0  0  0
   12.7340    0.3040   24.3220 C   0  0  0  0  0  0  0  0  0  0  0  0
   11.3500    0.3110   24.1730 C   0  0  0  0  0  0  0  0  0  0  0  0
   10.5040    1.1130   25.1320 C   0  0  0  0  0  0  0  0  0  0  0  0
    8.5100    0.2220   24.1220 C   0  0  0  0  0  0  0  0  0  0  0  0
    9.1860    1.4410   24.5680 N   0  0  0  0  0  0  0  0  0  0  0  0
    8.3790    2.2690   25.4650 C   0  0  0  0  0  0  0  0  0  0  0  0
    7.9620    3.5920   24.8460 C   0  0  0  0  0  0  0  0  0  0  0  0
    8.3170    4.6580   25.3370 O   0  0  0  0  0  0  0  0  0  0  0  0
    7.2710    3.5160   23.7140 N   0  0  0  0  0  0  0  0  0  0  0  0
    7.2700    4.5790   22.7240 C   0  0  0  0  0  0  0  0  0  0  0  0
  2  1  2  0
  3  2  1  0
  4  3  1  0
  5  4  1  0
  6  5  2  0
  7  6  1  0
  8  7  2  0
  9  8  1  0
 10  9  2  0
 10  5  1  0
 11 10  1  0
 12 11  2  0
 13 12  1  0
 13  4  2  0
 14  3  1  0
 15 14  1  0
 16  2  1  0
 16 15  1  6
 17 16  1  0
 18 17  2  0
 19 18  1  0
 20 19  1  0
 21 19  2  0
 22 21  1  0
 23 17  1  0
 23 22  2  0
 24 23  1  0
 25 16  1  0
 26 25  1  0
 26 24  1  0
 27 26  1  0
 28 27  1  0
 29 28  2  0
 30 28  1  0
 31 30  1  0
M  END
