
     RDKit          3D

 25 28  0  0  0  0  0  0  0  0999 V2000
   13.8110   -1.6850   21.3740 Cl  0  0  0  0  0  0  0  0  0  0  0  0
   12.5290   -0.9880   22.3110 C   0  0  0  0  0  0  0  0  0  0  0  0
   12.7930   -0.0640   23.3130 C   0  0  0  0  0  0  0  0  0  0  0  0
   14.4240    0.3860   23.7150 Cl  0  0  0  0  0  0  0  0  0  0  0  0
   11.2260   -1.3420   22.0210 C   0  0  0  0  0  0  0  0  0  0  0  0
   10.1630   -0.7800   22.7200 C   0  0  0  0  0  0  0  0  0  0  0  0
   10.4550    0.1350   23.7390 C   0  0  0  0  0  0  0  0  0  0  0  0
   11.7560    0.5040   24.0280 C   0  0  0  0  0  0  0  0  0  0  0  0
    8.7280   -1.1510   22.4060 C   0  0  1  0  0  0  0  0  0  0  0  0
    7.8790   -0.9670   23.6740 C   0  0  0  0  0  0  0  0  0  0  0  0
    8.1090    0.4090   24.2490 C   0  0  0  0  0  0  0  0  0  0  0  0
    9.4990    0.6640   24.5770 O   0  0  0  0  0  0  0  0  0  0  0  0
    8.2110   -0.2790   21.2590 C   0  0  0  0  0  0  0  0  0  0  0  0
    8.7160    0.8100   20.9770 O   0  0  0  0  0  0  0  0  0  0  0  0
    7.1470   -0.7870   20.6060 N   0  0  0  0  0  0  0  0  0  0  0  0
    6.4060   -0.1810   19.5740 C   0  0  0  0  0  0  0  0  0  0  0  0
    5.3090    0.6730   19.9180 C   0  0  0  0  0  0  0  0  0  0  0  0
    4.8380    0.8610   21.2440 C   0  0  0  0  0  0  0  0  0  0  0  0
    3.8100    1.7240   21.5100 C   0  0  0  0  0  0  0  0  0  0  0  0
    3.1980    2.4340   20.4840 C   0  0  0  0  0  0  0  0  0  0  0  0
    3.6160    2.2850   19.1910 C   0  0  0  0  0  0  0  0  0  0  0  0
    4.6800    1.4030   18.8730 C   0  0  0  0  0  0  0  0  0  0  0  0
    5.1760    1.2280   17.5600 C   0  0  0  0  0  0  0  0  0  0  0  0
    6.1880    0.4350   17.2420 N   0  0  0  0  0  0  0  0  0  0  0  0
    6.7740   -0.2490   18.2320 C   0  0  0  0  0  0  0  0  0  0  0  0
  2  1  1  0
  3  2  2  0
  4  3  1  0
  5  2  1  0
  6  5  2  0
  7  6  1  0
  8  7  2  0
  8  3  1  0
  9  6  1  0
 10  9  1  0
 11 10  1  0
 12 11  1  0
 12  7  1  0
  9 13  1  6
 14 13  2  0
 15 13  1  0
 16 15  1  0
 17 16  1  0
 18 17  2  0
 19 18  1  0
 20 19  2  0
 21 20  1  0
 22 21  2  0
 22 17  1  0
 23 22  1  0
 24 23  2  0
 25 24  1  0
 25 16  2  0
M  END
> <BADATOMS>
20;19;18;17;8;9;10
> <BADCOMMENTS>
Weak Density;Weak Density;Weak Density;Weak Density;Weak Density;Weak Density;Weak Density
> <BADATOMNAMES>
[HET]1.C21;[HET]1.C20;[HET]1.C19;[HET]1.C18;[HET]1.C9;[HET]1.C10;[HET]1.C11