
     RDKit          3D

 24 27  0  0  0  0  0  0  0  0999 V2000
   14.1510   -1.5250   21.1980 Cl  0  0  0  0  0  0  0  0  0  0  0  0
   13.1350   -0.7020   22.3480 C   0  0  0  0  0  0  0  0  0  0  0  0
   13.7160    0.1390   23.2810 C   0  0  0  0  0  0  0  0  0  0  0  0
   12.8960    0.7920   24.1900 C   0  0  0  0  0  0  0  0  0  0  0  0
   11.5180    0.6240   24.1340 C   0  0  0  0  0  0  0  0  0  0  0  0
   11.7640   -0.8870   22.2850 C   0  0  0  0  0  0  0  0  0  0  0  0
   10.9380   -0.1980   23.1680 C   0  0  2  0  0  0  0  0  0  0  0  0
    9.4180   -0.2820   23.0030 C   0  0  1  0  0  0  0  0  0  0  0  0
    8.7240    0.3140   24.0960 O   0  0  0  0  0  0  0  0  0  0  0  0
    8.9330    0.4430   21.7340 C   0  0  2  0  0  0  0  0  0  0  0  0
    9.3890    1.4770   21.2850 O   0  0  0  0  0  0  0  0  0  0  0  0
    7.8560   -0.2350   21.2440 N   0  0  0  0  0  0  0  0  0  0  0  0
    7.6260   -1.5140   21.9370 C   0  0  0  0  0  0  0  0  0  0  0  0
    8.8950   -1.7110   22.7620 C   0  0  0  0  0  0  0  0  0  0  0  0
    6.9940    0.2300   20.1990 C   0  0  0  0  0  0  0  0  0  0  0  0
    5.8890    1.0840   20.5050 C   0  0  0  0  0  0  0  0  0  0  0  0
    5.5470    1.5050   21.8200 C   0  0  0  0  0  0  0  0  0  0  0  0
    4.4740    2.3240   22.0400 C   0  0  0  0  0  0  0  0  0  0  0  0
    3.6880    2.7660   20.9790 C   0  0  0  0  0  0  0  0  0  0  0  0
    3.9790    2.3950   19.6970 C   0  0  0  0  0  0  0  0  0  0  0  0
    5.0850    1.5500   19.4220 C   0  0  0  0  0  0  0  0  0  0  0  0
    5.4410    1.1440   18.1120 C   0  0  0  0  0  0  0  0  0  0  0  0
    6.4710    0.3550   17.8310 N   0  0  0  0  0  0  0  0  0  0  0  0
    7.2130   -0.0830   18.8610 C   0  0  0  0  0  0  0  0  0  0  0  0
  2  1  1  0
  3  2  1  0
  4  3  1  0
  5  4  1  0
  6  2  1  0
  7  6  1  6
  7  5  1  0
  8  7  1  0
  8  9  1  1
 10  8  1  0
 10 11  1  1
 12 10  1  0
 13 12  1  0
 14 13  1  0
 14  8  1  0
 15 12  1  0
 16 15  1  0
 17 16  1  0
 18 17  1  0
 19 18  1  0
 20 19  1  0
 21 20  1  0
 21 16  1  0
 22 21  1  0
 23 22  1  0
 24 23  1  0
 24 15  1  0
M  END
$$$$
