
     RDKit          3D

 26 28  0  0  0  0  0  0  0  0999 V2000
    8.7350    0.6050   20.8670 O   0  0  0  0  0  0  0  0  0  0  0  0
    8.1710   -0.4750   21.0140 C   0  0  0  0  0  0  0  0  0  0  0  0
    7.0430   -0.8240   20.3740 N   0  0  0  0  0  0  0  0  0  0  0  0
    6.3770   -0.0370   19.4190 C   0  0  0  0  0  0  0  0  0  0  0  0
    5.2420    0.7010   19.7900 C   0  0  0  0  0  0  0  0  0  0  0  0
    4.7470    0.7430   21.2130 C   0  0  0  0  0  0  0  0  0  0  0  0
    4.6340    1.4740   18.8080 C   0  0  0  0  0  0  0  0  0  0  0  0
    5.1710    1.5020   17.5360 C   0  0  0  0  0  0  0  0  0  0  0  0
    6.2650    0.8160   17.1780 N   0  0  0  0  0  0  0  0  0  0  0  0
    6.8470    0.0520   18.1110 C   0  0  0  0  0  0  0  0  0  0  0  0
    8.6930   -1.5320   21.9660 C   0  0  0  0  0  0  0  0  0  0  0  0
    9.9870   -1.0930   22.6030 C   0  0  0  0  0  0  0  0  0  0  0  0
   11.2020   -1.5510   22.1080 C   0  0  0  0  0  0  0  0  0  0  0  0
   12.3740   -1.1560   22.7150 C   0  0  0  0  0  0  0  0  0  0  0  0
   13.8800   -1.8280   22.1570 Cl  0  0  0  0  0  0  0  0  0  0  0  0
   12.3810   -0.3000   23.7970 C   0  0  0  0  0  0  0  0  0  0  0  0
    9.9710   -0.2440   23.7010 C   0  0  0  0  0  0  0  0  0  0  0  0
   11.1640    0.1350   24.2960 C   0  0  0  0  0  0  0  0  0  0  0  0
   11.2530    0.9710   25.3800 O   0  0  0  0  0  0  0  0  0  0  0  0
   10.0610    1.5740   25.9000 C   0  0  0  0  0  0  0  0  0  0  0  0
    9.3050    0.6260   26.7660 C   0  0  0  0  0  0  0  0  0  0  0  0
    9.8750   -0.5060   27.2010 O   0  0  0  0  0  0  0  0  0  0  0  0
    8.8990   -1.1450   28.0130 N   0  0  0  0  0  0  0  0  0  0  0  0
    8.1000    0.7910   27.1890 N   0  0  0  0  0  0  0  0  0  0  0  0
    7.8900   -0.3260   27.9600 C   0  0  0  0  0  0  0  0  0  0  0  0
    6.5960   -0.5490   28.6560 C   0  0  0  0  0  0  0  0  0  0  0  0
  2  1  2  0
  3  2  1  0
  4  3  1  0
  5  4  2  0
  6  5  1  0
  7  5  1  0
  8  7  2  0
  9  8  1  0
 10  9  2  0
 10  4  1  0
 11  2  1  0
 12 11  1  0
 13 12  2  0
 14 13  1  0
 15 14  1  0
 16 14  2  0
 17 12  1  0
 18 17  2  0
 18 16  1  0
 19 18  1  0
 20 19  1  0
 21 20  1  0
 22 21  1  0
 23 22  1  0
 24 21  2  0
 25 24  1  0
 25 23  2  0
 26 25  1  0
M  END
