
     RDKit          3D

 23 25  0  0  0  0  0  0  0  0999 V2000
    8.7420    0.8960   20.8150 O   0  0  0  0  0  0  0  0  0  0  0  0
    8.2800   -0.2200   21.0520 C   0  0  0  0  0  0  0  0  0  0  0  0
    8.9790   -1.2090   21.9640 C   0  0  0  0  0  0  0  0  0  0  0  0
   10.1940   -0.6400   22.6620 C   0  0  0  0  0  0  0  0  0  0  0  0
   11.4650   -1.1170   22.3600 C   0  0  0  0  0  0  0  0  0  0  0  0
   12.5600   -0.5590   22.9850 C   0  0  0  0  0  0  0  0  0  0  0  0
   14.1360   -1.2430   22.6940 Cl  0  0  0  0  0  0  0  0  0  0  0  0
   12.4320    0.4710   23.8980 C   0  0  0  0  0  0  0  0  0  0  0  0
   10.0570    0.3730   23.6060 C   0  0  0  0  0  0  0  0  0  0  0  0
   11.1640    0.9240   24.2450 C   0  0  0  0  0  0  0  0  0  0  0  0
   10.9790    1.8790   25.4110 C   0  0  0  0  0  0  0  0  0  0  0  0
   10.8250    3.3430   25.0700 C   0  0  0  0  0  0  0  0  0  0  0  0
    7.1230   -0.6750   20.5250 N   0  0  0  0  0  0  0  0  0  0  0  0
    6.3140   -0.0390   19.5680 C   0  0  0  0  0  0  0  0  0  0  0  0
    5.2670    0.8210   20.0230 C   0  0  0  0  0  0  0  0  0  0  0  0
    4.8530    0.9180   21.3770 C   0  0  0  0  0  0  0  0  0  0  0  0
    3.8450    1.7650   21.7450 C   0  0  0  0  0  0  0  0  0  0  0  0
    3.2030    2.5530   20.8000 C   0  0  0  0  0  0  0  0  0  0  0  0
    3.5630    2.4930   19.4850 C   0  0  0  0  0  0  0  0  0  0  0  0
    4.6010    1.6260   19.0590 C   0  0  0  0  0  0  0  0  0  0  0  0
    5.0080    1.5060   17.7090 C   0  0  0  0  0  0  0  0  0  0  0  0
    5.9620    0.6880   17.2860 N   0  0  0  0  0  0  0  0  0  0  0  0
    6.5830   -0.0630   18.2010 C   0  0  0  0  0  0  0  0  0  0  0  0
  2  1  2  0
  3  2  1  0
  4  3  1  0
  5  4  2  0
  6  5  1  0
  7  6  1  0
  8  6  2  0
  9  4  1  0
 10  9  2  0
 10  8  1  0
 11 10  1  0
 12 11  1  0
 13  2  1  0
 14 13  1  0
 15 14  1  0
 16 15  2  0
 17 16  1  0
 18 17  2  0
 19 18  1  0
 20 19  2  0
 20 15  1  0
 21 20  1  0
 22 21  2  0
 23 22  1  0
 23 14  2  0
M  END
