
     RDKit          3D

 24 27  0  0  0  0  0  0  0  0999 V2000
    9.2830    1.0730   21.1730 O   0  0  0  0  0  0  0  0  0  0  0  0
    8.7720    0.0440   21.6110 C   0  0  0  0  0  0  0  0  0  0  0  0
    9.3390   -0.6970   22.8240 C   0  0  2  0  0  0  0  0  0  0  0  0
    8.5790   -0.2800   24.1030 C   0  0  0  0  0  0  0  0  0  0  0  0
    8.9790    1.1160   24.5380 C   0  0  0  0  0  0  0  0  0  0  0  0
   10.4290    1.2000   24.6920 N   0  0  0  0  0  0  0  0  0  0  0  0
   10.8280   -0.4270   22.9440 C   0  0  0  0  0  0  0  0  0  0  0  0
   11.3000    0.5370   23.8520 C   0  0  0  0  0  0  0  0  0  0  0  0
   12.6650    0.8320   23.9070 C   0  0  0  0  0  0  0  0  0  0  0  0
   13.5570    0.1800   23.0710 C   0  0  0  0  0  0  0  0  0  0  0  0
   11.7440   -1.1020   22.1390 C   0  0  0  0  0  0  0  0  0  0  0  0
   13.0840   -0.7810   22.2030 C   0  0  0  0  0  0  0  0  0  0  0  0
   14.1960   -1.5760   21.1210 Cl  0  0  0  0  0  0  0  0  0  0  0  0
    7.6580   -0.5030   21.0870 N   0  0  0  0  0  0  0  0  0  0  0  0
    6.9110   -0.0040   20.0050 C   0  0  0  0  0  0  0  0  0  0  0  0
    5.7700    0.8090   20.2840 C   0  0  0  0  0  0  0  0  0  0  0  0
    5.3130    1.1050   21.5940 C   0  0  0  0  0  0  0  0  0  0  0  0
    4.2320    1.9170   21.7950 C   0  0  0  0  0  0  0  0  0  0  0  0
    3.5490    2.4660   20.7180 C   0  0  0  0  0  0  0  0  0  0  0  0
    3.9510    2.2130   19.4390 C   0  0  0  0  0  0  0  0  0  0  0  0
    5.0710    1.3820   19.1850 C   0  0  0  0  0  0  0  0  0  0  0  0
    5.5490    1.1030   17.8820 C   0  0  0  0  0  0  0  0  0  0  0  0
    6.6140    0.3560   17.6220 N   0  0  0  0  0  0  0  0  0  0  0  0
    7.2700   -0.1760   18.6680 C   0  0  0  0  0  0  0  0  0  0  0  0
  2  1  2  0
  3  2  1  6
  4  3  1  0
  5  4  1  0
  6  5  1  0
  7  3  1  0
  8  7  2  0
  8  6  1  0
  9  8  1  0
 10  9  2  0
 11  7  1  0
 12 11  2  0
 12 10  1  0
 13 12  1  0
 14  2  1  0
 15 14  1  0
 16 15  1  0
 17 16  2  0
 18 17  1  0
 19 18  2  0
 20 19  1  0
 21 20  2  0
 21 16  1  0
 22 21  1  0
 23 22  2  0
 24 23  1  0
 24 15  2  0
M  END
