
     RDKit          3D

 22 24  0  0  0  0  0  0  0  0999 V2000
   14.0630   -1.7280   21.5800 Cl  0  0  0  0  0  0  0  0  0  0  0  0
   12.7210   -0.9740   22.3650 C   0  0  0  0  0  0  0  0  0  0  0  0
   12.9150    0.0410   23.2840 C   0  0  0  0  0  0  0  0  0  0  0  0
   14.5060    0.5490   23.7340 Cl  0  0  0  0  0  0  0  0  0  0  0  0
   11.4400   -1.3640   22.0190 C   0  0  0  0  0  0  0  0  0  0  0  0
   10.3350   -0.7250   22.5690 C   0  0  0  0  0  0  0  0  0  0  0  0
   10.5480    0.2880   23.4910 C   0  0  0  0  0  0  0  0  0  0  0  0
   11.8260    0.6720   23.8460 C   0  0  0  0  0  0  0  0  0  0  0  0
    8.9370   -1.1100   22.1410 C   0  0  0  0  0  0  0  0  0  0  0  0
    8.2900   -0.1610   21.1480 C   0  0  0  0  0  0  0  0  0  0  0  0
    8.7160    0.9690   20.9470 O   0  0  0  0  0  0  0  0  0  0  0  0
    7.2100   -0.6660   20.5270 N   0  0  0  0  0  0  0  0  0  0  0  0
    6.3800   -0.0410   19.5820 C   0  0  0  0  0  0  0  0  0  0  0  0
    5.2610    0.7200   20.0310 C   0  0  0  0  0  0  0  0  0  0  0  0
    4.8390    0.7980   21.3750 C   0  0  0  0  0  0  0  0  0  0  0  0
    3.7390    1.5370   21.6870 C   0  0  0  0  0  0  0  0  0  0  0  0
    3.0130    2.2220   20.7930 N   0  0  0  0  0  0  0  0  0  0  0  0
    3.3960    2.1710   19.5270 C   0  0  0  0  0  0  0  0  0  0  0  0
    4.5080    1.4330   19.0660 C   0  0  0  0  0  0  0  0  0  0  0  0
    4.9110    1.3320   17.7200 C   0  0  0  0  0  0  0  0  0  0  0  0
    5.9300    0.6130   17.3020 N   0  0  0  0  0  0  0  0  0  0  0  0
    6.6340   -0.0530   18.2200 C   0  0  0  0  0  0  0  0  0  0  0  0
  2  1  1  0
  3  2  2  0
  4  3  1  0
  5  2  1  0
  6  5  2  0
  7  6  1  0
  8  7  2  0
  8  3  1  0
  9  6  1  0
 10  9  1  0
 11 10  2  0
 12 10  1  0
 13 12  1  0
 14 13  1  0
 15 14  2  0
 16 15  1  0
 17 16  2  0
 18 17  1  0
 19 18  2  0
 19 14  1  0
 20 19  1  0
 21 20  2  0
 22 21  1  0
 22 13  2  0
M  END
