
     RDKit          3D

 37 42  0  0  0  0  0  0  0  0999 V2000
    9.3080    1.1470   20.9470 O   0  0  0  0  0  0  0  0  0  0  0  0
    8.8000    0.1870   21.5120 C   0  0  0  0  0  0  0  0  0  0  0  0
    7.6250   -0.3470   21.1080 N   0  0  0  0  0  0  0  0  0  0  0  0
    6.8750    0.1050   20.0030 C   0  0  1  0  0  0  0  0  0  0  0  0
    5.7110    0.9010   20.2410 C   0  0  0  0  0  0  0  0  0  0  0  0
    5.2280    1.2270   21.5350 C   0  0  0  0  0  0  0  0  0  0  0  0
    4.1230    2.0160   21.6930 C   0  0  0  0  0  0  0  0  0  0  0  0
    3.4410    2.5110   20.5890 C   0  0  0  0  0  0  0  0  0  0  0  0
    3.8680    2.2250   19.3250 C   0  0  0  0  0  0  0  0  0  0  0  0
    5.0090    1.4130   19.1150 C   0  0  0  0  0  0  0  0  0  0  0  0
    5.5070    1.0970   17.8260 C   0  0  0  0  0  0  0  0  0  0  0  0
    6.5830    0.3520   17.6050 N   0  0  0  0  0  0  0  0  0  0  0  0
    7.2410   -0.1180   18.6740 C   0  0  0  0  0  0  0  0  0  0  0  0
    9.4470   -0.4260   22.7680 C   0  0  1  0  0  0  0  0  0  0  0  0
   10.9470   -0.1000   22.7270 C   0  0  0  0  0  0  0  0  0  0  0  0
   11.8130   -0.8700   21.9540 C   0  0  0  0  0  0  0  0  0  0  0  0
   13.1530   -0.5400   21.8970 C   0  0  0  0  0  0  0  0  0  0  0  0
   14.2030   -1.4630   20.8560 Cl  0  0  0  0  0  0  0  0  0  0  0  0
   13.6720    0.5250   22.6030 C   0  0  0  0  0  0  0  0  0  0  0  0
   12.8320    1.2840   23.3990 C   0  0  0  0  0  0  0  0  0  0  0  0
   11.4860    0.9640   23.4640 C   0  0  2  0  0  0  0  0  0  0  0  0
   10.7490    1.6950   24.3640 O   0  0  0  0  0  0  0  0  0  0  0  0
    9.3230    1.7070   24.1290 C   0  0  0  0  0  0  0  0  0  0  0  0
    8.7640    0.3140   23.9410 C   0  0  0  0  0  0  0  0  0  0  0  0
    9.2620   -1.9580   22.8730 C   0  0  0  0  0  0  0  0  0  0  0  0
    9.8020   -2.5690   24.1510 C   0  0  0  0  0  0  0  0  0  0  0  0
   10.5190   -1.9390   24.9170 O   0  0  0  0  0  0  0  0  0  0  0  0
    9.4890   -3.8480   24.4500 N   0  0  0  0  0  0  0  0  0  0  0  0
   10.3400   -4.6550   25.3300 C   0  0  0  0  0  0  0  0  0  0  0  0
    9.7100   -4.7530   26.7030 C   0  0  0  0  0  0  0  0  0  0  0  0
    8.3030   -5.1360   26.5400 N   0  0  0  0  0  0  0  0  0  0  0  0
    7.6070   -5.0430   25.3850 C   0  0  0  0  0  0  0  0  0  0  0  0
    8.2110   -4.4930   24.1150 C   0  0  2  0  0  0  0  0  0  0  0  0
    8.3730   -5.6070   23.0910 C   0  0  0  0  0  0  0  0  0  0  0  0
    6.3850   -5.4970   25.5530 N   0  0  0  0  0  0  0  0  0  0  0  0
    6.2800   -5.9020   26.8840 N   0  0  0  0  0  0  0  0  0  0  0  0
    7.4400   -5.6720   27.4380 C   0  0  0  0  0  0  0  0  0  0  0  0
  2  1  1  0
  3  2  1  0
  4  3  1  1
  5  4  1  0
  6  5  1  0
  7  6  1  0
  8  7  1  0
  9  8  1  0
 10  9  1  0
 10  5  1  0
 11 10  1  0
 12 11  1  0
 13 12  1  0
 13  4  1  0
 14  2  1  0
 15 14  1  0
 16 15  1  0
 17 16  1  0
 18 17  1  0
 19 17  1  0
 20 19  1  0
 21 20  1  1
 21 15  1  0
 22 21  1  0
 23 22  1  0
 24 23  1  0
 24 14  1  0
 14 25  1  1
 26 25  1  0
 27 26  1  0
 28 26  1  0
 29 28  1  0
 30 29  1  0
 31 30  1  0
 32 31  1  0
 33 32  1  0
 33 28  1  0
 33 34  1  6
 35 32  1  0
 36 35  1  0
 37 36  1  0
 37 31  1  0
M  END
$$$$
