
     RDKit          3D

 25 28  0  0  0  0  0  0  0  0999 V2000
   13.8120   -1.5870   21.5580 Cl  0  0  0  0  0  0  0  0  0  0  0  0
   12.4770   -0.8630   22.4000 C   0  0  0  0  0  0  0  0  0  0  0  0
   12.6870    0.0990   23.3810 C   0  0  0  0  0  0  0  0  0  0  0  0
   14.2870    0.5090   23.9070 Cl  0  0  0  0  0  0  0  0  0  0  0  0
   11.1900   -1.2210   22.0460 C   0  0  0  0  0  0  0  0  0  0  0  0
   10.0900   -0.6230   22.6600 C   0  0  0  0  0  0  0  0  0  0  0  0
   10.3150    0.3570   23.6430 C   0  0  0  0  0  0  0  0  0  0  0  0
   11.6140    0.7190   23.9880 C   0  0  0  0  0  0  0  0  0  0  0  0
    8.6730   -1.0590   22.3370 C   0  0  1  0  0  0  0  0  0  0  0  0
    7.8080   -0.9160   23.6030 C   0  0  0  0  0  0  0  0  0  0  0  0
    7.8680    0.5140   24.1100 C   0  0  0  0  0  0  0  0  0  0  0  0
    9.2550    0.9400   24.3070 N   0  0  0  0  0  0  0  0  0  0  0  0
    8.1120   -0.2000   21.2020 C   0  0  0  0  0  0  0  0  0  0  0  0
    8.6280    0.8680   20.8710 O   0  0  0  0  0  0  0  0  0  0  0  0
    6.9960   -0.7030   20.6180 N   0  0  0  0  0  0  0  0  0  0  0  0
    6.2220   -0.1180   19.5990 C   0  0  0  0  0  0  0  0  0  0  0  0
    5.2470    0.8630   19.9580 C   0  0  0  0  0  0  0  0  0  0  0  0
    4.7170    1.0140   21.2620 C   0  0  0  0  0  0  0  0  0  0  0  0
    3.7480    1.9520   21.4850 C   0  0  0  0  0  0  0  0  0  0  0  0
    3.2610    2.7720   20.5400 N   0  0  0  0  0  0  0  0  0  0  0  0
    3.7440    2.6490   19.3060 C   0  0  0  0  0  0  0  0  0  0  0  0
    4.7350    1.7050   18.9350 C   0  0  0  0  0  0  0  0  0  0  0  0
    5.2030    1.4920   17.6190 C   0  0  0  0  0  0  0  0  0  0  0  0
    6.0510    0.5380   17.2740 N   0  0  0  0  0  0  0  0  0  0  0  0
    6.5240   -0.2510   18.2460 C   0  0  0  0  0  0  0  0  0  0  0  0
  2  1  1  0
  3  2  2  0
  4  3  1  0
  5  2  1  0
  6  5  2  0
  7  6  1  0
  8  7  2  0
  8  3  1  0
  9  6  1  0
 10  9  1  0
 11 10  1  0
 12 11  1  0
 12  7  1  0
  9 13  1  6
 14 13  2  0
 15 13  1  0
 16 15  1  0
 17 16  1  0
 18 17  2  0
 19 18  1  0
 20 19  2  0
 21 20  1  0
 22 21  2  0
 22 17  1  0
 23 22  1  0
 24 23  2  0
 25 24  1  0
 25 16  2  0
M  END
