
     RDKit          3D

 30 33  0  0  0  0  0  0  0  0999 V2000
    9.2800    1.0640   21.0760 O   0  0  0  0  0  0  0  0  0  0  0  0
    8.7340    0.1120   21.6200 C   0  0  0  0  0  0  0  0  0  0  0  0
    9.3910   -0.5760   22.8350 C   0  0  1  0  0  0  0  0  0  0  0  0
    8.5890    0.0710   23.9950 C   0  0  0  0  0  0  0  0  0  0  0  0
    9.4610    0.8340   24.9780 C   0  0  0  0  0  0  0  0  0  0  0  0
   10.5270    1.5770   24.3630 O   0  0  0  0  0  0  0  0  0  0  0  0
    9.1320   -2.0980   22.7740 C   0  0  0  0  0  0  0  0  0  0  0  0
    9.8890   -2.8690   23.7460 N   0  0  0  0  0  0  0  0  0  0  0  0
    9.3090   -3.6400   24.6700 C   0  0  0  0  0  0  0  0  0  0  0  0
   10.2430   -4.4400   25.5070 C   0  0  0  0  0  0  0  0  0  0  0  0
    9.8220   -5.2560   26.4340 C   0  0  0  0  0  0  0  0  0  0  0  0
    8.0800   -3.6850   24.8090 O   0  0  0  0  0  0  0  0  0  0  0  0
   10.8950   -0.2950   22.8840 C   0  0  0  0  0  0  0  0  0  0  0  0
   11.3690    0.7810   23.6300 C   0  0  0  0  0  0  0  0  0  0  0  0
   12.7150    1.1220   23.6440 C   0  0  0  0  0  0  0  0  0  0  0  0
   13.6060    0.3930   22.8770 C   0  0  0  0  0  0  0  0  0  0  0  0
   11.8090   -1.0390   22.1380 C   0  0  0  0  0  0  0  0  0  0  0  0
   13.1400   -0.6650   22.1250 C   0  0  0  0  0  0  0  0  0  0  0  0
   14.2330   -1.4840   21.0390 Cl  0  0  0  0  0  0  0  0  0  0  0  0
    7.5220   -0.3520   21.2130 N   0  0  0  0  0  0  0  0  0  0  0  0
    6.7690    0.1260   20.1120 C   0  0  0  0  0  0  0  0  0  0  0  0
    5.6540    0.9940   20.3520 C   0  0  0  0  0  0  0  0  0  0  0  0
    5.1730    1.3260   21.6450 C   0  0  0  0  0  0  0  0  0  0  0  0
    4.0870    2.1410   21.8050 C   0  0  0  0  0  0  0  0  0  0  0  0
    3.4320    2.6770   20.7000 C   0  0  0  0  0  0  0  0  0  0  0  0
    3.8650    2.3990   19.4350 C   0  0  0  0  0  0  0  0  0  0  0  0
    4.9780    1.5460   19.2240 C   0  0  0  0  0  0  0  0  0  0  0  0
    5.4450    1.1870   17.9350 C   0  0  0  0  0  0  0  0  0  0  0  0
    6.4690    0.3760   17.7140 N   0  0  0  0  0  0  0  0  0  0  0  0
    7.1000   -0.1330   18.7820 C   0  0  0  0  0  0  0  0  0  0  0  0
  2  1  2  0
  3  2  1  0
  4  3  1  0
  5  4  1  0
  6  5  1  0
  3  7  1  6
  8  7  1  0
  9  8  1  0
 10  9  1  0
 11 10  2  0
 12  9  2  0
 13  3  1  0
 14 13  2  0
 14  6  1  0
 15 14  1  0
 16 15  2  0
 17 13  1  0
 18 17  2  0
 18 16  1  0
 19 18  1  0
 20  2  1  0
 21 20  1  0
 22 21  1  0
 23 22  2  0
 24 23  1  0
 25 24  2  0
 26 25  1  0
 27 26  2  0
 27 22  1  0
 28 27  1  0
 29 28  2  0
 30 29  1  0
 30 21  2  0
M  END
