
     RDKit          3D

 21 23  0  0  0  0  0  0  0  0999 V2000
    8.3280    0.8050   21.2650 O   0  0  0  0  0  0  0  0  0  0  0  0
    7.8720   -0.3270   21.4330 C   0  0  0  0  0  0  0  0  0  0  0  0
    8.3780   -1.2360   22.5370 C   0  0  0  0  0  0  0  0  0  0  0  0
    9.8280   -0.9430   22.8360 C   0  0  0  0  0  0  0  0  0  0  0  0
   10.8500   -1.6780   22.2430 C   0  0  0  0  0  0  0  0  0  0  0  0
   12.1550   -1.2690   22.4380 C   0  0  0  0  0  0  0  0  0  0  0  0
   10.0630    0.1240   23.6200 N   0  0  0  0  0  0  0  0  0  0  0  0
   11.3330    0.5080   23.7990 C   0  0  0  0  0  0  0  0  0  0  0  0
   12.3930   -0.1610   23.2150 C   0  0  0  0  0  0  0  0  0  0  0  0
   14.0240    0.4020   23.4340 Cl  0  0  0  0  0  0  0  0  0  0  0  0
    6.9000   -0.8680   20.6640 N   0  0  0  0  0  0  0  0  0  0  0  0
    6.2090   -0.2550   19.6050 C   0  0  0  0  0  0  0  0  0  0  0  0
    5.0970    0.5840   19.9260 C   0  0  0  0  0  0  0  0  0  0  0  0
    4.5290    0.6800   21.2240 C   0  0  0  0  0  0  0  0  0  0  0  0
    3.4730    1.5110   21.4660 C   0  0  0  0  0  0  0  0  0  0  0  0
    2.9330    2.2880   20.4480 C   0  0  0  0  0  0  0  0  0  0  0  0
    3.4450    2.2280   19.1830 C   0  0  0  0  0  0  0  0  0  0  0  0
    4.5330    1.3730   18.8850 C   0  0  0  0  0  0  0  0  0  0  0  0
    5.1020    1.2590   17.5930 C   0  0  0  0  0  0  0  0  0  0  0  0
    6.1180    0.4590   17.2920 N   0  0  0  0  0  0  0  0  0  0  0  0
    6.6410   -0.2770   18.2800 C   0  0  0  0  0  0  0  0  0  0  0  0
  2  1  2  0
  3  2  1  0
  4  3  1  0
  5  4  2  0
  6  5  1  0
  7  4  1  0
  8  7  2  0
  9  8  1  0
  9  6  2  0
 10  9  1  0
 11  2  1  0
 12 11  1  0
 13 12  1  0
 14 13  2  0
 15 14  1  0
 16 15  2  0
 17 16  1  0
 18 17  2  0
 18 13  1  0
 19 18  1  0
 20 19  2  0
 21 20  1  0
 21 12  2  0
M  END
