
     RDKit          3D

 34 37  0  0  0  0  0  0  0  0999 V2000
   14.0000   -1.5590   21.4770 Cl  0  0  0  0  0  0  0  0  0  0  0  0
   12.8040   -0.8390   22.5230 C   0  0  0  0  0  0  0  0  0  0  0  0
   11.4640   -1.0960   22.2930 C   0  0  0  0  0  0  0  0  0  0  0  0
   13.2140   -0.0330   23.5560 C   0  0  0  0  0  0  0  0  0  0  0  0
   12.2630    0.5140   24.3970 C   0  0  0  0  0  0  0  0  0  0  0  0
   10.9040    0.2570   24.2200 C   0  0  0  0  0  0  0  0  0  0  0  0
    9.9590    0.7090   25.3130 C   0  0  0  0  0  0  0  0  0  0  0  0
    8.5490    0.6870   24.8980 N   0  0  0  0  0  0  0  0  0  0  0  0
    7.3830    1.6600   25.4270 S   0  0  1  0  0  0  0  0  0  0  0  0
    6.2730    1.5170   24.5510 O   0  0  0  0  0  0  0  0  0  0  0  0
    7.2380    1.3930   26.8160 O   0  0  0  0  0  0  0  0  0  0  0  0
    7.9650    3.1500   25.2750 N   0  0  0  0  0  0  0  0  0  0  0  0
    7.8430    4.0530   26.4230 C   0  0  0  0  0  0  0  0  0  0  0  0
    8.4540    3.6860   23.9870 C   0  0  0  0  0  0  0  0  0  0  0  0
    7.3380    4.0400   23.0300 C   0  0  0  0  0  0  0  0  0  0  0  0
    7.3280    3.7660   21.8630 O   0  0  0  0  0  0  0  0  0  0  0  0
    6.3780    4.7440   23.6400 O   0  0  0  0  0  0  0  0  0  0  0  0
    5.3170    5.2660   22.8030 C   0  0  0  0  0  0  0  0  0  0  0  0
   10.4970   -0.5330   23.1330 C   0  0  0  0  0  0  0  0  0  0  0  0
    9.0220   -0.7490   22.8400 C   0  0  1  0  0  0  0  0  0  0  0  0
    8.1630   -0.4730   24.0740 C   0  0  0  0  0  0  0  0  0  0  0  0
    8.5710    0.0000   21.5840 C   0  0  0  0  0  0  0  0  0  0  0  0
    9.1860    0.9640   21.1400 O   0  0  0  0  0  0  0  0  0  0  0  0
    7.4180   -0.4610   21.0420 N   0  0  0  0  0  0  0  0  0  0  0  0
    6.6740    0.0760   19.9690 C   0  0  0  0  0  0  0  0  0  0  0  0
    5.5320    0.8890   20.2650 C   0  0  0  0  0  0  0  0  0  0  0  0
    5.0670    1.1490   21.5810 C   0  0  0  0  0  0  0  0  0  0  0  0
    3.9660    1.9310   21.7960 C   0  0  0  0  0  0  0  0  0  0  0  0
    3.2770    2.4940   20.7270 C   0  0  0  0  0  0  0  0  0  0  0  0
    3.6890    2.2790   19.4440 C   0  0  0  0  0  0  0  0  0  0  0  0
    4.8220    1.4700   19.1750 C   0  0  0  0  0  0  0  0  0  0  0  0
    5.2920    1.2010   17.8650 C   0  0  0  0  0  0  0  0  0  0  0  0
    6.3460    0.4440   17.5910 N   0  0  0  0  0  0  0  0  0  0  0  0
    7.0040   -0.0980   18.6250 C   0  0  0  0  0  0  0  0  0  0  0  0
  2  1  1  0
  3  2  2  0
  4  2  1  0
  5  4  2  0
  6  5  1  0
  7  6  1  0
  8  7  1  0
  9  8  1  0
 10  9  2  0
 11  9  2  0
  9 12  1  1
 13 12  1  0
 14 12  1  0
 15 14  1  0
 16 15  2  0
 17 15  1  0
 18 17  1  0
 19  6  2  0
 19  3  1  0
 20 19  1  0
 21 20  1  0
 21  8  1  0
 20 22  1  6
 23 22  2  0
 24 22  1  0
 25 24  1  0
 26 25  1  0
 27 26  2  0
 28 27  1  0
 29 28  2  0
 30 29  1  0
 31 30  2  0
 31 26  1  0
 32 31  1  0
 33 32  2  0
 34 33  1  0
 34 25  2  0
M  END
