
     RDKit          3D

 26 29  0  0  0  0  0  0  0  0999 V2000
   13.8510   -1.6420   21.3600 Cl  0  0  0  0  0  0  0  0  0  0  0  0
   12.5340   -1.0100   22.2930 C   0  0  1  0  0  0  0  0  0  0  0  0
   12.7420   -0.0370   23.2650 C   0  0  0  0  0  0  0  0  0  0  0  0
   14.3420    0.5060   23.6590 Cl  0  0  0  0  0  0  0  0  0  0  0  0
   11.6710    0.4970   23.9560 C   0  0  0  0  0  0  0  0  0  0  0  0
   11.2530   -1.4450   22.0140 C   0  0  0  0  0  0  0  0  0  0  0  0
   10.1560   -0.9050   22.6800 C   0  0  0  0  0  0  0  0  0  0  0  0
   10.3760    0.0660   23.6720 C   0  0  0  0  0  0  0  0  0  0  0  0
    9.3150    0.5840   24.3930 N   0  0  0  0  0  0  0  0  0  0  0  0
    7.9350    0.1370   24.2140 C   0  0  0  0  0  0  0  0  0  0  0  0
    7.8960   -1.2650   23.6310 C   0  0  0  0  0  0  0  0  0  0  0  0
    8.7430   -1.3270   22.3340 C   0  0  1  0  0  0  0  0  0  0  0  0
    8.2360   -0.3620   21.2590 C   0  0  2  0  0  0  0  0  0  0  0  0
    8.9250    0.5680   20.8350 O   0  0  0  0  0  0  0  0  0  0  0  0
    6.9470   -0.5310   20.9140 N   0  0  0  0  0  0  0  0  0  0  0  0
    6.2640   -0.0990   19.7690 C   0  0  2  0  0  0  0  0  0  0  0  0
    6.7650   -0.1040   18.4680 C   0  0  0  0  0  0  0  0  0  0  0  0
    6.2260    0.5330   17.4220 N   0  0  0  0  0  0  0  0  0  0  0  0
    5.1480    1.2630   17.6450 C   0  0  0  0  0  0  0  0  0  0  0  0
    5.1080    0.7080   20.0090 C   0  0  1  0  0  0  0  0  0  0  0  0
    4.6200    0.9720   21.3150 C   0  0  0  0  0  0  0  0  0  0  0  0
    3.6590    1.9140   21.4780 C   0  0  1  0  0  0  0  0  0  0  0  0
    3.2960    2.2460   22.7430 F   0  0  0  0  0  0  0  0  0  0  0  0
    4.5460    1.4210   18.9150 C   0  0  1  0  0  0  0  0  0  0  0  0
    3.5120    2.3540   19.1660 C   0  0  0  0  0  0  0  0  0  0  0  0
    3.0800    2.5950   20.4370 C   0  0  0  0  0  0  0  0  0  0  0  0
  2  1  1  6
  3  2  1  0
  4  3  1  0
  5  3  1  0
  6  2  1  0
  7  6  1  0
  8  7  1  0
  8  5  1  0
  9  8  1  0
 10  9  1  0
 11 10  1  0
 12 11  1  1
 12  7  1  0
 13 12  1  0
 13 14  1  1
 15 13  1  0
 16 15  1  1
 17 16  1  0
 18 17  1  0
 19 18  1  0
 20 16  1  0
 20 21  1  1
 22 21  1  0
 22 23  1  1
 24 20  1  0
 24 19  1  1
 25 24  1  0
 26 25  1  0
 26 22  1  0
M  END
$$$$
