
     RDKit          3D

 28 31  0  0  0  0  0  0  0  0999 V2000
   13.8970   -1.6250   21.1460 Cl  0  0  0  0  0  0  0  0  0  0  0  0
   12.7850   -0.8560   22.2430 C   0  0  0  0  0  0  0  0  0  0  0  0
   11.4410   -1.1740   22.1680 C   0  0  0  0  0  0  0  0  0  0  0  0
   13.2460    0.1280   23.0880 C   0  0  0  0  0  0  0  0  0  0  0  0
   12.3400    0.8240   23.8650 C   0  0  0  0  0  0  0  0  0  0  0  0
   10.9750    0.5470   23.8020 C   0  0  0  0  0  0  0  0  0  0  0  0
   10.0400    1.3060   24.7170 C   0  0  0  0  0  0  0  0  0  0  0  0
    8.6240    1.1600   24.3390 N   0  0  0  0  0  0  0  0  0  0  0  0
    7.7240    1.7180   25.3580 C   0  0  0  0  0  0  0  0  0  0  0  0
    6.4310    2.2660   24.8210 C   0  0  0  0  0  0  0  0  0  0  0  0
    5.6750    2.7510   25.9170 O   0  0  0  0  0  0  0  0  0  0  0  0
    4.5170    3.4630   25.5020 C   0  0  0  0  0  0  0  0  0  0  0  0
   10.5190   -0.4550   22.9310 C   0  0  0  0  0  0  0  0  0  0  0  0
    9.0300   -0.7200   22.8050 C   0  0  1  0  0  0  0  0  0  0  0  0
    8.3000   -0.2430   24.0610 C   0  0  0  0  0  0  0  0  0  0  0  0
    8.4780    0.0210   21.5860 C   0  0  0  0  0  0  0  0  0  0  0  0
    9.0060    1.0470   21.1490 O   0  0  0  0  0  0  0  0  0  0  0  0
    7.3460   -0.5220   21.0600 N   0  0  0  0  0  0  0  0  0  0  0  0
    6.5760   -0.0400   19.9710 C   0  0  0  0  0  0  0  0  0  0  0  0
    5.4890    0.8530   20.2390 C   0  0  0  0  0  0  0  0  0  0  0  0
    4.9570    1.0840   21.5350 C   0  0  0  0  0  0  0  0  0  0  0  0
    3.9090    1.9400   21.7240 C   0  0  0  0  0  0  0  0  0  0  0  0
    3.3540    2.6280   20.6480 C   0  0  0  0  0  0  0  0  0  0  0  0
    3.8270    2.4380   19.3810 C   0  0  0  0  0  0  0  0  0  0  0  0
    4.8890    1.5310   19.1370 C   0  0  0  0  0  0  0  0  0  0  0  0
    5.3700    1.2340   17.8380 C   0  0  0  0  0  0  0  0  0  0  0  0
    6.3400    0.3700   17.5840 N   0  0  0  0  0  0  0  0  0  0  0  0
    6.9160   -0.2410   18.6310 C   0  0  0  0  0  0  0  0  0  0  0  0
  2  1  1  0
  3  2  2  0
  4  2  1  0
  5  4  2  0
  6  5  1  0
  7  6  1  0
  8  7  1  0
  9  8  1  0
 10  9  1  0
 11 10  1  0
 12 11  1  0
 13  6  2  0
 13  3  1  0
 14 13  1  0
 15 14  1  0
 15  8  1  0
 14 16  1  6
 17 16  2  0
 18 16  1  0
 19 18  1  0
 20 19  1  0
 21 20  2  0
 22 21  1  0
 23 22  2  0
 24 23  1  0
 25 24  2  0
 25 20  1  0
 26 25  1  0
 27 26  2  0
 28 27  1  0
 28 19  2  0
M  END
