
     RDKit          3D

 23 25  0  0  0  0  0  0  0  0999 V2000
   14.0110   -1.6410   21.7730 Cl  0  0  0  0  0  0  0  0  0  0  0  0
   12.6060   -1.0570   22.5980 C   0  0  0  0  0  0  0  0  0  0  0  0
   12.7090   -0.1520   23.6440 C   0  0  0  0  0  0  0  0  0  0  0  0
   14.2240    0.5970   24.0330 Cl  0  0  0  0  0  0  0  0  0  0  0  0
   11.5720    0.2640   24.3140 C   0  0  0  0  0  0  0  0  0  0  0  0
   10.3320   -0.1890   23.8990 C   0  0  0  0  0  0  0  0  0  0  0  0
   11.3620   -1.5070   22.1910 C   0  0  0  0  0  0  0  0  0  0  0  0
   10.2090   -1.0570   22.8260 C   0  0  0  0  0  0  0  0  0  0  0  0
    8.8470   -1.4760   22.2910 C   0  0  1  0  0  0  0  0  0  0  0  0
    8.0260   -2.2900   23.2010 N   0  0  0  0  0  0  0  0  0  0  0  0
    8.0840   -0.3380   21.5670 C   0  0  0  0  0  0  0  0  0  0  0  0
    8.3760    0.8470   21.7480 O   0  0  0  0  0  0  0  0  0  0  0  0
    7.2210   -0.7820   20.6290 N   0  0  0  0  0  0  0  0  0  0  0  0
    6.2690   -0.1540   19.8050 C   0  0  0  0  0  0  0  0  0  0  0  0
    5.2910    0.7930   20.2620 C   0  0  0  0  0  0  0  0  0  0  0  0
    4.8540    0.8970   21.6080 C   0  0  0  0  0  0  0  0  0  0  0  0
    3.7940    1.6910   21.9470 C   0  0  0  0  0  0  0  0  0  0  0  0
    3.1080    2.4090   20.9770 C   0  0  0  0  0  0  0  0  0  0  0  0
    3.4990    2.3600   19.6710 C   0  0  0  0  0  0  0  0  0  0  0  0
    4.6050    1.5680   19.2750 C   0  0  0  0  0  0  0  0  0  0  0  0
    4.9960    1.4120   17.9240 C   0  0  0  0  0  0  0  0  0  0  0  0
    5.8950    0.5400   17.5090 N   0  0  0  0  0  0  0  0  0  0  0  0
    6.4730   -0.2310   18.4340 C   0  0  0  0  0  0  0  0  0  0  0  0
  2  1  1  0
  3  2  2  0
  4  3  1  0
  5  3  1  0
  6  5  2  0
  7  2  1  0
  8  6  1  0
  8  7  2  0
  9  8  1  0
  9 10  1  1
 11  9  1  0
 12 11  2  0
 13 11  1  0
 14 13  1  0
 15 14  1  0
 16 15  2  0
 17 16  1  0
 18 17  2  0
 19 18  1  0
 20 19  2  0
 20 15  1  0
 21 20  1  0
 22 21  2  0
 23 22  1  0
 23 14  2  0
M  END
