
     RDKit          3D

 31 34  0  0  0  0  0  0  0  0999 V2000
    9.2570    1.3570   21.2830 O   0  0  0  0  0  0  0  0  0  0  0  0
    8.9080    0.2170   21.5680 C   0  0  1  0  0  0  0  0  0  0  0  0
    8.0760   -0.4510   20.7490 N   0  0  0  0  0  0  0  0  0  0  0  0
    7.0470   -0.0600   19.8720 C   0  0  1  0  0  0  0  0  0  0  0  0
    6.0220    0.8560   20.2740 C   0  0  2  0  0  0  0  0  0  0  0  0
    5.6860    1.1170   21.6280 C   0  0  0  0  0  0  0  0  0  0  0  0
    4.5880    1.8650   21.9520 C   0  0  0  0  0  0  0  0  0  0  0  0
    3.7800    2.4020   20.9590 C   0  0  0  0  0  0  0  0  0  0  0  0
    4.0730    2.2020   19.6400 C   0  0  0  0  0  0  0  0  0  0  0  0
    5.1960    1.4250   19.2620 C   0  0  2  0  0  0  0  0  0  0  0  0
    5.4810    1.0960   17.9170 C   0  0  0  0  0  0  0  0  0  0  0  0
    6.4340    0.2610   17.5420 N   0  0  0  0  0  0  0  0  0  0  0  0
    7.1670   -0.3100   18.5040 C   0  0  0  0  0  0  0  0  0  0  0  0
    9.5300   -0.5260   22.7800 C   0  0  1  0  0  0  0  0  0  0  0  0
   11.0190   -0.1870   22.8140 C   0  0  0  0  0  0  0  0  0  0  0  0
   11.9000   -0.8720   21.9810 C   0  0  0  0  0  0  0  0  0  0  0  0
   13.2320   -0.5100   21.9530 C   0  0  1  0  0  0  0  0  0  0  0  0
   14.2850   -1.2810   20.7990 Cl  0  0  0  0  0  0  0  0  0  0  0  0
   13.7340    0.4880   22.7630 C   0  0  0  0  0  0  0  0  0  0  0  0
   12.8820    1.1530   23.6260 C   0  0  0  0  0  0  0  0  0  0  0  0
   11.5350    0.8270   23.6360 C   0  0  1  0  0  0  0  0  0  0  0  0
   10.7510    1.6150   24.4450 O   0  0  0  0  0  0  0  0  0  0  0  0
    9.3160    1.4380   24.3660 C   0  0  0  0  0  0  0  0  0  0  0  0
    8.9020    0.0100   24.0860 C   0  0  0  0  0  0  0  0  0  0  0  0
    9.3590   -2.0640   22.7250 C   0  0  0  0  0  0  0  0  0  0  0  0
    8.0560   -2.4610   23.1330 O   0  0  0  0  0  0  0  0  0  0  0  0
    8.0750   -3.6100   23.9660 C   0  0  0  0  0  0  0  0  0  0  0  0
    7.3670   -4.8080   23.3720 C   0  0  1  0  0  0  0  0  0  0  0  0
    7.9670   -5.8770   23.2820 O   0  0  0  0  0  0  0  0  0  0  0  0
    6.0870   -4.6830   23.0430 N   0  0  0  0  0  0  0  0  0  0  0  0
    5.2190   -5.8310   22.8370 C   0  0  0  0  0  0  0  0  0  0  0  0
  2  1  1  6
  3  2  1  0
  4  3  1  6
  5  4  1  0
  5  6  1  1
  7  6  1  0
  8  7  1  0
  9  8  1  0
 10  9  1  1
 10  5  1  0
 11 10  1  0
 12 11  1  0
 13 12  1  0
 13  4  1  0
 14  2  1  0
 15 14  1  0
 16 15  1  0
 17 16  1  0
 17 18  1  6
 19 17  1  0
 20 19  1  0
 21 20  1  6
 21 15  1  0
 22 21  1  0
 23 22  1  0
 24 23  1  0
 24 14  1  0
 14 25  1  6
 26 25  1  0
 27 26  1  0
 28 27  1  0
 28 29  1  1
 30 28  1  0
 31 30  1  0
M  END
$$$$
