
     RDKit          3D

 23 24  0  0  0  0  0  0  0  0999 V2000
   11.3710    5.5510   24.0820 O   0  0  0  0  0  0  0  0  0  0  0  0
   10.7460    4.2710   24.0950 S   0  0  1  0  0  0  0  0  0  0  0  0
    9.9530    3.8970   25.2190 O   0  0  0  0  0  0  0  0  0  0  0  0
    9.7850    4.2210   22.7970 N   0  0  0  0  0  0  0  0  0  0  0  0
   11.8470    3.0720   23.8900 N   0  0  0  0  0  0  0  0  0  0  0  0
   11.6730    1.6770   23.5580 C   0  0  0  0  0  0  0  0  0  0  0  0
   12.7930    0.9270   23.1980 C   0  0  0  0  0  0  0  0  0  0  0  0
   12.6080   -0.3590   22.7210 C   0  0  0  0  0  0  0  0  0  0  0  0
   13.9910   -1.2690   22.1770 Cl  0  0  0  0  0  0  0  0  0  0  0  0
   11.3570   -0.9260   22.6130 C   0  0  0  0  0  0  0  0  0  0  0  0
   10.4060    1.0980   23.4820 C   0  0  0  0  0  0  0  0  0  0  0  0
   10.2380   -0.1930   22.9850 C   0  0  0  0  0  0  0  0  0  0  0  0
    8.8540   -0.7380   22.7060 C   0  0  0  0  0  0  0  0  0  0  0  0
    8.2810   -0.0930   21.4590 C   0  0  0  0  0  0  0  0  0  0  0  0
    8.8480    0.8400   20.9110 O   0  0  0  0  0  0  0  0  0  0  0  0
    7.1020   -0.5910   21.0270 N   0  0  0  0  0  0  0  0  0  0  0  0
    6.4380   -0.0290   19.9060 C   0  0  0  0  0  0  0  0  0  0  0  0
    5.2970    0.7740   20.0940 C   0  0  0  0  0  0  0  0  0  0  0  0
    4.6770    0.9780   21.4540 C   0  0  0  0  0  0  0  0  0  0  0  0
    6.9420   -0.1710   18.6110 C   0  0  0  0  0  0  0  0  0  0  0  0
    6.4260    0.4440   17.5430 N   0  0  0  0  0  0  0  0  0  0  0  0
    5.3430    1.2050   17.7360 C   0  0  0  0  0  0  0  0  0  0  0  0
    4.7540    1.3900   18.9710 C   0  0  0  0  0  0  0  0  0  0  0  0
  2  1  2  0
  3  2  2  0
  2  4  1  6
  5  2  1  0
  6  5  1  0
  7  6  2  0
  8  7  1  0
  9  8  1  0
 10  8  2  0
 11  6  1  0
 12 11  2  0
 12 10  1  0
 13 12  1  0
 14 13  1  0
 15 14  2  0
 16 14  1  0
 17 16  1  0
 18 17  2  0
 19 18  1  0
 20 17  1  0
 21 20  2  0
 22 21  1  0
 23 22  2  0
 23 18  1  0
M  END
