
     RDKit          3D

 25 28  0  0  0  0  0  0  0  0999 V2000
    9.1590    1.0860   21.0460 O   0  0  0  0  0  0  0  0  0  0  0  0
    8.6430    0.0230   21.4070 C   0  0  0  0  0  0  0  0  0  0  0  0
    9.2510   -0.8470   22.5070 C   0  0  2  0  0  0  0  0  0  0  0  0
    8.5110   -0.5320   23.8150 C   0  0  0  0  0  0  0  0  0  0  0  0
    8.8620    0.8000   24.4140 C   0  0  0  0  0  0  0  0  0  0  0  0
    8.0310    1.4920   24.9910 O   0  0  0  0  0  0  0  0  0  0  0  0
   10.1440    1.1980   24.2840 N   0  0  0  0  0  0  0  0  0  0  0  0
   10.7210   -0.5570   22.7210 C   0  0  0  0  0  0  0  0  0  0  0  0
   11.1080    0.5220   23.5320 C   0  0  0  0  0  0  0  0  0  0  0  0
   12.4550    0.8700   23.6390 C   0  0  0  0  0  0  0  0  0  0  0  0
   13.4130    0.1530   22.9410 C   0  0  0  0  0  0  0  0  0  0  0  0
   11.6980   -1.2760   22.0400 C   0  0  0  0  0  0  0  0  0  0  0  0
   13.0200   -0.9010   22.1440 C   0  0  0  0  0  0  0  0  0  0  0  0
   14.2060   -1.7270   21.1750 Cl  0  0  0  0  0  0  0  0  0  0  0  0
    7.5090   -0.4710   20.8690 N   0  0  0  0  0  0  0  0  0  0  0  0
    6.7720    0.0790   19.8120 C   0  0  0  0  0  0  0  0  0  0  0  0
    5.6860    0.9490   20.1200 C   0  0  0  0  0  0  0  0  0  0  0  0
    5.2330    1.2100   21.4400 C   0  0  0  0  0  0  0  0  0  0  0  0
    4.1540    2.0190   21.6650 C   0  0  0  0  0  0  0  0  0  0  0  0
    3.4750    2.6050   20.6050 C   0  0  0  0  0  0  0  0  0  0  0  0
    3.8840    2.3970   19.3170 C   0  0  0  0  0  0  0  0  0  0  0  0
    4.9990    1.5680   19.0400 C   0  0  0  0  0  0  0  0  0  0  0  0
    5.4480    1.2850   17.7270 C   0  0  0  0  0  0  0  0  0  0  0  0
    6.4570    0.4730   17.4420 N   0  0  0  0  0  0  0  0  0  0  0  0
    7.0920   -0.1110   18.4690 C   0  0  0  0  0  0  0  0  0  0  0  0
  2  1  2  0
  3  2  1  6
  4  3  1  0
  5  4  1  0
  6  5  2  0
  7  5  1  0
  8  3  1  0
  9  8  2  0
  9  7  1  0
 10  9  1  0
 11 10  2  0
 12  8  1  0
 13 12  2  0
 13 11  1  0
 14 13  1  0
 15  2  1  0
 16 15  1  0
 17 16  1  0
 18 17  2  0
 19 18  1  0
 20 19  2  0
 21 20  1  0
 22 21  2  0
 22 17  1  0
 23 22  1  0
 24 23  2  0
 25 24  1  0
 25 16  2  0
M  END
