
     RDKit          3D

 27 31  0  0  0  0  0  0  0  0999 V2000
    9.4230    1.4070   21.0320 O   0  0  0  0  0  0  0  0  0  0  0  0
    9.0000    0.4660   21.6870 C   0  0  0  0  0  0  0  0  0  0  0  0
    9.6980    0.0410   22.9810 C   0  0  2  0  0  0  0  0  0  0  0  0
    9.1250    0.9510   24.0950 C   0  0  0  0  0  0  0  0  0  0  0  0
    9.9560    2.1960   24.3110 C   0  0  0  0  0  0  0  0  0  0  0  0
   11.3210    1.8740   24.6050 O   0  0  0  0  0  0  0  0  0  0  0  0
   11.2260    0.1770   22.8720 C   0  0  0  0  0  0  0  0  0  0  0  0
   11.9270    1.1130   23.6400 C   0  0  0  0  0  0  0  0  0  0  0  0
   13.2910    1.3070   23.4910 C   0  0  0  0  0  0  0  0  0  0  0  0
   13.9860    0.5400   22.5730 C   0  0  0  0  0  0  0  0  0  0  0  0
   11.9450   -0.6090   21.9710 C   0  0  0  0  0  0  0  0  0  0  0  0
   13.3080   -0.4130   21.8370 C   0  0  0  0  0  0  0  0  0  0  0  0
   14.1920   -1.3850   20.6920 Cl  0  0  0  0  0  0  0  0  0  0  0  0
    7.8600   -0.2050   21.3200 N   0  0  0  0  0  0  0  0  0  0  0  0
    7.5060   -1.5550   21.7860 C   0  0  0  0  0  0  0  0  0  0  0  0
    8.6980   -2.2750   22.3800 C   0  0  0  0  0  0  0  0  0  0  0  0
    9.3990   -1.4130   23.4220 C   0  0  0  0  0  0  0  0  0  0  0  0
    7.0910    0.2270   20.1880 C   0  0  0  0  0  0  0  0  0  0  0  0
    5.9160    1.0170   20.3740 C   0  0  0  0  0  0  0  0  0  0  0  0
    5.3980    1.3870   21.6460 C   0  0  0  0  0  0  0  0  0  0  0  0
    4.2860    2.1750   21.7500 C   0  0  0  0  0  0  0  0  0  0  0  0
    3.6400    2.6450   20.6100 C   0  0  0  0  0  0  0  0  0  0  0  0
    4.0910    2.3050   19.3650 C   0  0  0  0  0  0  0  0  0  0  0  0
    5.2250    1.4720   19.2120 C   0  0  0  0  0  0  0  0  0  0  0  0
    5.7190    1.0670   17.9490 C   0  0  0  0  0  0  0  0  0  0  0  0
    6.7910    0.3080   17.7790 N   0  0  0  0  0  0  0  0  0  0  0  0
    7.4490   -0.0840   18.8780 C   0  0  0  0  0  0  0  0  0  0  0  0
  2  1  2  0
  3  2  1  0
  3  4  1  1
  5  4  1  0
  6  5  1  0
  7  3  1  0
  8  7  2  0
  8  6  1  0
  9  8  1  0
 10  9  2  0
 11  7  1  0
 12 11  2  0
 12 10  1  0
 13 12  1  0
 14  2  1  0
 15 14  1  0
 16 15  1  0
 17 16  1  0
 17  3  1  0
 18 14  1  0
 19 18  1  0
 20 19  2  0
 21 20  1  0
 22 21  2  0
 23 22  1  0
 24 23  2  0
 24 19  1  0
 25 24  1  0
 26 25  2  0
 27 26  1  0
 27 18  2  0
M  END
