
     RDKit          3D

 24 27  0  0  0  0  0  0  0  0999 V2000
    9.3030    1.1020   21.0850 O   0  0  0  0  0  0  0  0  0  0  0  0
    8.7170    0.1350   21.5650 C   0  0  0  0  0  0  0  0  0  0  0  0
    9.2400   -0.6030   22.8010 C   0  0  1  0  0  0  0  0  0  0  0  0
   10.7290   -0.3580   22.9420 C   0  0  0  0  0  0  0  0  0  0  0  0
   11.6460   -0.9690   22.0910 C   0  0  0  0  0  0  0  0  0  0  0  0
    8.4860   -0.1580   24.0670 C   0  0  0  0  0  0  0  0  0  0  0  0
    9.0120    1.1730   24.5370 C   0  0  0  0  0  0  0  0  0  0  0  0
   10.4150    1.1020   24.8650 O   0  0  0  0  0  0  0  0  0  0  0  0
   11.2170    0.5200   23.9160 C   0  0  0  0  0  0  0  0  0  0  0  0
   12.5720    0.8060   24.0180 C   0  0  0  0  0  0  0  0  0  0  0  0
   13.4640    0.2080   23.1470 C   0  0  0  0  0  0  0  0  0  0  0  0
   12.9890   -0.6740   22.2010 C   0  0  0  0  0  0  0  0  0  0  0  0
   14.1050   -1.4180   21.0950 Cl  0  0  0  0  0  0  0  0  0  0  0  0
    7.4860   -0.2530   21.1690 N   0  0  0  0  0  0  0  0  0  0  0  0
    6.7670    0.0170   19.9910 C   0  0  0  0  0  0  0  0  0  0  0  0
    7.2640    0.0100   18.6890 C   0  0  0  0  0  0  0  0  0  0  0  0
    6.6470    0.5070   17.6090 N   0  0  0  0  0  0  0  0  0  0  0  0
    5.4750    1.0890   17.7910 C   0  0  0  0  0  0  0  0  0  0  0  0
    4.8490    1.2290   19.0520 C   0  0  0  0  0  0  0  0  0  0  0  0
    5.4970    0.6550   20.1820 C   0  0  0  0  0  0  0  0  0  0  0  0
    3.6750    1.9860   19.2910 C   0  0  0  0  0  0  0  0  0  0  0  0
    3.1530    2.1820   20.4980 N   0  0  0  0  0  0  0  0  0  0  0  0
    3.7760    1.6230   21.5470 C   0  0  0  0  0  0  0  0  0  0  0  0
    4.9100    0.8710   21.4530 C   0  0  0  0  0  0  0  0  0  0  0  0
  2  1  2  0
  3  2  1  6
  4  3  1  0
  5  4  2  0
  6  3  1  0
  7  6  1  0
  8  7  1  0
  9  8  1  0
  9  4  1  0
 10  9  2  0
 11 10  1  0
 12 11  2  0
 12  5  1  0
 13 12  1  0
 14  2  1  0
 15 14  1  0
 16 15  2  0
 17 16  1  0
 18 17  2  0
 19 18  1  0
 20 19  2  0
 20 15  1  0
 21 19  1  0
 22 21  2  0
 23 22  1  0
 24 23  2  0
 24 20  1  0
M  END
