
     RDKit          3D

 25 28  0  0  0  0  0  0  0  0999 V2000
   10.6630    1.2720   24.7450 O   0  0  0  0  0  0  0  0  0  0  0  0
    5.2380    1.1360   21.5800 C   0  0  0  0  0  0  0  0  0  0  0  0
    9.3750   -0.6150   22.8810 C   0  0  1  0  0  0  0  0  0  0  0  0
    4.1520    1.9520   21.7310 C   0  0  0  0  0  0  0  0  0  0  0  0
    3.5080    2.4820   20.6240 C   0  0  0  0  0  0  0  0  0  0  0  0
    3.9440    2.1910   19.3630 C   0  0  0  0  0  0  0  0  0  0  0  0
   14.1510   -1.6130   21.0380 Cl  0  0  0  0  0  0  0  0  0  0  0  0
    5.0580    1.3430   19.1610 C   0  0  0  0  0  0  0  0  0  0  0  0
    5.5680    1.0240   17.8780 C   0  0  0  0  0  0  0  0  0  0  0  0
    7.2750   -0.2090   18.7430 C   0  0  0  0  0  0  0  0  0  0  0  0
    9.3550    1.0810   21.1630 O   0  0  0  0  0  0  0  0  0  0  0  0
    6.8940    0.0150   20.0640 C   0  0  0  0  0  0  0  0  0  0  0  0
    8.7890    0.1060   21.6430 C   0  0  0  0  0  0  0  0  0  0  0  0
    9.0480   -2.0500   22.8340 N   0  0  0  0  0  0  0  0  0  0  0  0
    7.6320   -0.4230   21.1800 N   0  0  0  0  0  0  0  0  0  0  0  0
    5.7310    0.8100   20.2910 C   0  0  0  0  0  0  0  0  0  0  0  0
   10.8780   -0.3680   22.9580 C   0  0  0  0  0  0  0  0  0  0  0  0
   11.7460   -1.0770   22.1310 C   0  0  0  0  0  0  0  0  0  0  0  0
   13.0860   -0.7470   22.1130 C   0  0  0  0  0  0  0  0  0  0  0  0
   13.6010    0.2590   22.9060 C   0  0  0  0  0  0  0  0  0  0  0  0
   12.7600    0.9360   23.7690 C   0  0  0  0  0  0  0  0  0  0  0  0
   11.4130    0.6140   23.7980 C   0  0  0  0  0  0  0  0  0  0  0  0
    9.2430    1.3430   24.4720 C   0  0  0  0  0  0  0  0  0  0  0  0
    6.6360    0.2690   17.6670 N   0  0  0  0  0  0  0  0  0  0  0  0
    8.6600   -0.0070   24.1080 C   0  0  0  0  0  0  0  0  0  0  0  0
  4  2  2  0
  5  4  1  0
  6  5  2  0
  8  6  1  0
  9  8  1  0
 12 10  2  0
 13 11  2  0
 13  3  1  0
  3 14  1  6
 15 13  1  0
 15 12  1  0
 16  8  2  0
 16  2  1  0
 16 12  1  0
 17  3  1  0
 18 17  2  0
 19  7  1  0
 19 18  1  0
 20 19  2  0
 21 20  1  0
 22 17  1  0
 22  1  1  0
 22 21  2  0
 23  1  1  0
 24 10  1  0
 24  9  2  0
 25 23  1  0
 25  3  1  0
M  END
