
     RDKit          3D

 32 35  0  0  0  0  0  0  0  0999 V2000
    8.9500    1.4820   20.8100 O   0  0  0  0  0  0  0  0  0  0  0  0
    8.5560    0.5280   21.4660 C   0  0  0  0  0  0  0  0  0  0  0  0
    7.5470   -0.4470   20.8840 C   0  0  0  0  0  0  0  0  0  0  0  0
    6.7300    0.1380   19.7500 C   0  0  0  0  0  0  0  0  0  0  0  0
    5.6510    1.0320   20.0080 C   0  0  0  0  0  0  0  0  0  0  0  0
    5.2500    1.4160   21.3170 C   0  0  0  0  0  0  0  0  0  0  0  0
    4.2240    2.2970   21.5080 C   0  0  0  0  0  0  0  0  0  0  0  0
    3.5410    2.8370   20.4230 C   0  0  0  0  0  0  0  0  0  0  0  0
    3.8810    2.4910   19.1470 C   0  0  0  0  0  0  0  0  0  0  0  0
    4.9450    1.5850   18.9050 C   0  0  0  0  0  0  0  0  0  0  0  0
    5.3680    1.2060   17.6090 C   0  0  0  0  0  0  0  0  0  0  0  0
    6.3690    0.3680   17.3700 N   0  0  0  0  0  0  0  0  0  0  0  0
    7.0140   -0.1460   18.4260 C   0  0  0  0  0  0  0  0  0  0  0  0
    8.9890    0.3100   22.7420 N   0  0  0  0  0  0  0  0  0  0  0  0
   10.0440    1.1660   23.2890 C   0  0  0  0  0  0  0  0  0  0  0  0
   11.3390    0.4330   23.5300 C   0  0  0  0  0  0  0  0  0  0  0  0
   12.0330   -0.1370   22.4690 C   0  0  0  0  0  0  0  0  0  0  0  0
   13.1990   -0.8350   22.7120 C   0  0  0  0  0  0  0  0  0  0  0  0
   14.0610   -1.5270   21.3680 Cl  0  0  0  0  0  0  0  0  0  0  0  0
   13.6990   -0.9940   23.9870 C   0  0  0  0  0  0  0  0  0  0  0  0
   13.0080   -0.4260   25.0460 C   0  0  0  0  0  0  0  0  0  0  0  0
   11.8390    0.2830   24.8160 C   0  0  0  0  0  0  0  0  0  0  0  0
    8.4100   -0.6540   23.6190 C   0  0  0  0  0  0  0  0  0  0  0  0
    7.4120   -0.2670   24.5040 C   0  0  0  0  0  0  0  0  0  0  0  0
    6.6990   -1.2260   25.1920 C   0  0  0  0  0  0  0  0  0  0  0  0
    8.6660   -2.0120   23.4520 C   0  0  0  0  0  0  0  0  0  0  0  0
    7.9850   -2.9590   24.1130 N   0  0  0  0  0  0  0  0  0  0  0  0
    7.0190   -2.5700   24.9670 C   0  0  0  0  0  0  0  0  0  0  0  0
    6.3470   -3.6100   25.6250 N   0  0  0  0  0  0  0  0  0  0  0  0
    5.3230   -3.5220   26.5170 C   0  0  0  0  0  0  0  0  0  0  0  0
    4.6010   -2.5270   26.6200 O   0  0  0  0  0  0  0  0  0  0  0  0
    5.1350   -4.7310   27.3840 C   0  0  0  0  0  0  0  0  0  0  0  0
  2  1  2  0
  3  2  1  0
  4  3  1  0
  5  4  1  0
  6  5  2  0
  7  6  1  0
  8  7  2  0
  9  8  1  0
 10  9  2  0
 10  5  1  0
 11 10  1  0
 12 11  2  0
 13 12  1  0
 13  4  2  0
 14  2  1  0
 15 14  1  0
 16 15  1  0
 17 16  2  0
 18 17  1  0
 19 18  1  0
 20 18  2  0
 21 20  1  0
 22 21  2  0
 22 16  1  0
 23 14  1  0
 24 23  2  0
 25 24  1  0
 26 23  1  0
 27 26  2  0
 28 27  1  0
 28 25  2  0
 29 28  1  0
 30 29  1  0
 31 30  2  0
 32 30  1  0
M  END
