
     RDKit          3D

 25 28  0  0  0  0  0  0  0  0999 V2000
    8.7590    0.9280   21.1280 O   0  0  0  0  0  0  0  0  0  0  0  0
    8.3040   -0.1830   21.3900 C   0  0  0  0  0  0  0  0  0  0  0  0
    8.8590   -1.0450   22.5290 C   0  0  2  0  0  0  0  0  0  0  0  0
    8.0690   -0.8600   23.8390 C   0  0  0  0  0  0  0  0  0  0  0  0
    8.3200    0.5160   24.4120 C   0  0  0  0  0  0  0  0  0  0  0  0
    9.7280    0.8210   24.5950 O   0  0  0  0  0  0  0  0  0  0  0  0
   10.3110   -0.6910   22.7700 C   0  0  0  0  0  0  0  0  0  0  0  0
   10.6550    0.2180   23.7790 C   0  0  0  0  0  0  0  0  0  0  0  0
   11.9920    0.5230   24.0090 C   0  0  0  0  0  0  0  0  0  0  0  0
   12.4280    1.5290   25.3550 Cl  0  0  0  0  0  0  0  0  0  0  0  0
   12.9960   -0.0390   23.2470 C   0  0  0  0  0  0  0  0  0  0  0  0
   11.3320   -1.2760   22.0210 C   0  0  0  0  0  0  0  0  0  0  0  0
   12.6470   -0.9390   22.2640 C   0  0  0  0  0  0  0  0  0  0  0  0
   13.8990   -1.6520   21.2870 Cl  0  0  0  0  0  0  0  0  0  0  0  0
    7.2810   -0.7490   20.7070 N   0  0  0  0  0  0  0  0  0  0  0  0
    6.5410   -0.2060   19.6410 C   0  0  0  0  0  0  0  0  0  0  0  0
    5.4450    0.6620   19.9390 C   0  0  0  0  0  0  0  0  0  0  0  0
    4.9270    0.8620   21.2480 C   0  0  0  0  0  0  0  0  0  0  0  0
    3.9080    1.7460   21.4740 C   0  0  0  0  0  0  0  0  0  0  0  0
    3.3490    2.4670   20.4250 C   0  0  0  0  0  0  0  0  0  0  0  0
    3.8010    2.2960   19.1460 C   0  0  0  0  0  0  0  0  0  0  0  0
    4.8550    1.3870   18.8680 C   0  0  0  0  0  0  0  0  0  0  0  0
    5.3690    1.1710   17.5660 C   0  0  0  0  0  0  0  0  0  0  0  0
    6.3630    0.3420   17.2840 N   0  0  0  0  0  0  0  0  0  0  0  0
    6.9190   -0.3250   18.3030 C   0  0  0  0  0  0  0  0  0  0  0  0
  2  1  2  0
  3  2  1  6
  4  3  1  0
  5  4  1  0
  6  5  1  0
  7  3  1  0
  8  7  2  0
  8  6  1  0
  9  8  1  0
 10  9  1  0
 11  9  2  0
 12  7  1  0
 13 12  2  0
 13 11  1  0
 14 13  1  0
 15  2  1  0
 16 15  1  0
 17 16  1  0
 18 17  2  0
 19 18  1  0
 20 19  2  0
 21 20  1  0
 22 21  2  0
 22 17  1  0
 23 22  1  0
 24 23  2  0
 25 24  1  0
 25 16  2  0
M  END
