
     RDKit          3D

 27 30  0  0  0  0  0  0  0  0999 V2000
   14.0580   -1.6590   21.1910 Cl  0  0  0  0  0  0  0  0  0  0  0  0
   12.8770   -0.8860   22.2150 C   0  0  1  0  0  0  0  0  0  0  0  0
   13.2750    0.1590   23.0330 C   0  0  0  0  0  0  0  0  0  0  0  0
   12.3310    0.8330   23.7900 C   0  0  0  0  0  0  0  0  0  0  0  0
   11.0080    0.4350   23.7020 C   0  0  0  0  0  0  0  0  0  0  0  0
    9.9400    0.9320   24.4150 O   0  0  0  0  0  0  0  0  0  0  0  0
    8.7370    0.1930   24.0730 C   0  0  0  0  0  0  0  0  0  0  0  0
   11.5510   -1.2760   22.1230 C   0  0  0  0  0  0  0  0  0  0  0  0
   10.5990   -0.5760   22.8580 C   0  0  2  0  0  0  0  0  0  0  0  0
    9.0860   -0.5980   22.8160 C   0  0  2  0  0  0  0  0  0  0  0  0
    8.3930   -0.0560   21.5670 C   0  0  1  0  0  0  0  0  0  0  0  0
    8.7610    0.9720   21.0200 O   0  0  0  0  0  0  0  0  0  0  0  0
    7.3340   -0.8110   21.0040 N   0  0  0  0  0  0  0  0  0  0  0  0
    6.8650   -2.0410   21.5340 C   0  0  0  0  0  0  0  0  0  0  0  0
    7.2890   -2.4820   22.6060 O   0  0  0  0  0  0  0  0  0  0  0  0
    5.8370   -2.7940   20.7540 C   0  0  0  0  0  0  0  0  0  0  0  0
    6.5040   -3.9830   20.0130 C   0  0  0  0  0  0  0  0  0  0  0  0
    6.6350   -0.2150   19.8770 C   0  0  2  0  0  0  0  0  0  0  0  0
    7.0900   -0.3650   18.5680 C   0  0  0  0  0  0  0  0  0  0  0  0
    6.5710    0.2700   17.5060 N   0  0  0  0  0  0  0  0  0  0  0  0
    5.5600    1.1000   17.7230 C   0  0  0  0  0  0  0  0  0  0  0  0
    5.0070    1.3730   19.0000 C   0  0  0  0  0  0  0  0  0  0  0  0
    5.5630    0.6970   20.1220 C   0  0  0  0  0  0  0  0  0  0  0  0
    3.9520    2.3000   19.2080 C   0  0  0  0  0  0  0  0  0  0  0  0
    3.4770    2.5450   20.4650 C   0  0  0  0  0  0  0  0  0  0  0  0
    4.0170    1.8910   21.5640 C   0  0  0  0  0  0  0  0  0  0  0  0
    5.0350    0.9910   21.4090 C   0  0  0  0  0  0  0  0  0  0  0  0
  2  1  1  6
  3  2  1  0
  4  3  1  0
  5  4  1  0
  6  5  1  0
  7  6  1  0
  8  2  1  0
  9  8  1  6
  9  5  1  0
 10  9  1  0
 10  7  1  1
 11 10  1  0
 11 12  1  6
 13 11  1  0
 14 13  1  0
 15 14  1  0
 16 14  1  0
 17 16  1  0
 18 13  1  1
 19 18  1  0
 20 19  1  0
 21 20  1  0
 22 21  1  0
 23 22  1  0
 23 18  1  0
 24 22  1  0
 25 24  1  0
 26 25  1  0
 27 26  1  0
 27 23  1  0
M  END
$$$$
