
     RDKit          3D

 33 36  0  0  0  0  0  0  0  0999 V2000
   13.9970   -1.5380   21.3410 Cl  0  0  0  0  0  0  0  0  0  0  0  0
   12.8350   -0.7950   22.4060 C   0  0  2  0  0  0  0  0  0  0  0  0
   11.4990   -1.1350   22.2920 C   0  0  0  0  0  0  0  0  0  0  0  0
   13.2640    0.1510   23.3070 C   0  0  0  0  0  0  0  0  0  0  0  0
   12.3360    0.7640   24.1260 C   0  0  0  0  0  0  0  0  0  0  0  0
   10.9790    0.4690   24.0270 C   0  0  0  0  0  0  0  0  0  0  0  0
   10.0190    1.2170   24.9200 C   0  0  0  0  0  0  0  0  0  0  0  0
    8.6340    1.0080   24.4850 N   0  0  0  0  0  0  0  0  0  0  0  0
    7.5480    1.9140   25.2320 S   0  0  2  0  0  0  0  0  0  0  0  0
    7.9250    1.9680   26.6000 O   0  0  0  0  0  0  0  0  0  0  0  0
    6.2550    1.4570   24.8550 O   0  0  0  0  0  0  0  0  0  0  0  0
    7.7990    3.3550   24.5780 N   0  0  0  0  0  0  0  0  0  0  0  0
    7.7390    3.7010   23.1400 C   0  0  0  0  0  0  0  0  0  0  0  0
    6.3720    4.2240   22.7150 C   0  0  0  0  0  0  0  0  0  0  0  0
    6.4100    5.6520   22.3770 C   0  0  0  0  0  0  0  0  0  0  0  0
    6.4090    6.7660   22.1330 N   0  0  0  0  0  0  0  0  0  0  0  0
    8.2580    4.4520   25.4360 C   0  0  0  0  0  0  0  0  0  0  0  0
   10.5510   -0.4900   23.0920 C   0  0  0  0  0  0  0  0  0  0  0  0
    9.0700   -0.8060   22.9460 C   0  0  1  0  0  0  0  0  0  0  0  0
    8.3060   -0.4030   24.2090 C   0  0  0  0  0  0  0  0  0  0  0  0
    8.5050   -0.0460   21.7420 C   0  0  0  0  0  0  0  0  0  0  0  0
    9.0390    0.9740   21.3010 O   0  0  0  0  0  0  0  0  0  0  0  0
    7.3700   -0.5770   21.2140 N   0  0  0  0  0  0  0  0  0  0  0  0
    6.6280   -0.1130   20.0950 C   0  0  1  0  0  0  0  0  0  0  0  0
    5.4620    0.6850   20.3210 C   0  0  0  0  0  0  0  0  0  0  0  0
    4.8930    0.9050   21.6010 C   0  0  0  0  0  0  0  0  0  0  0  0
    3.7990    1.7070   21.7540 C   0  0  0  0  0  0  0  0  0  0  0  0
    3.2230    2.3390   20.6590 C   0  0  0  0  0  0  0  0  0  0  0  0
    3.7190    2.1450   19.4020 C   0  0  0  0  0  0  0  0  0  0  0  0
    4.8390    1.3010   19.1940 C   0  0  0  0  0  0  0  0  0  0  0  0
    5.3810    1.0370   17.9140 C   0  0  0  0  0  0  0  0  0  0  0  0
    6.4370    0.2670   17.6980 N   0  0  0  0  0  0  0  0  0  0  0  0
    7.0310   -0.2810   18.7680 C   0  0  0  0  0  0  0  0  0  0  0  0
  2  1  1  6
  3  2  1  0
  4  2  1  0
  5  4  1  0
  6  5  1  0
  7  6  1  0
  8  7  1  0
  9  8  1  0
  9 10  1  1
 11  9  1  0
 12  9  1  0
 13 12  1  0
 14 13  1  0
 15 14  1  0
 16 15  1  0
 17 12  1  0
 18  6  1  0
 18  3  1  0
 19 18  1  0
 20 19  1  0
 20  8  1  0
 19 21  1  6
 22 21  1  0
 23 21  1  0
 24 23  1  1
 25 24  1  0
 26 25  1  0
 27 26  1  0
 28 27  1  0
 29 28  1  0
 30 29  1  0
 30 25  1  0
 31 30  1  0
 32 31  1  0
 33 32  1  0
 33 24  1  0
M  END
$$$$
