
     RDKit          3D

 31 35  0  0  0  0  0  0  0  0999 V2000
    8.5720    3.2770   25.8110 O   0  0  0  0  0  0  0  0  0  0  0  0
    7.8030    2.3270   25.0840 S   0  0  1  0  0  0  0  0  0  0  0  0
    6.7730    1.5840   25.7260 O   0  0  0  0  0  0  0  0  0  0  0  0
    7.1540    3.1370   23.8650 N   0  0  0  0  0  0  0  0  0  0  0  0
    7.6900    3.4780   22.5190 C   0  0  0  0  0  0  0  0  0  0  0  0
    6.5820    4.5300   22.3980 C   0  0  0  0  0  0  0  0  0  0  0  0
    5.8980    3.8950   23.6120 C   0  0  0  0  0  0  0  0  0  0  0  0
    8.8180    1.2790   24.4160 N   0  0  0  0  0  0  0  0  0  0  0  0
   10.1920    1.3070   24.9280 C   0  0  0  0  0  0  0  0  0  0  0  0
    8.3410   -0.0840   24.1200 C   0  0  0  0  0  0  0  0  0  0  0  0
    9.1200   -0.6390   22.9230 C   0  0  2  0  0  0  0  0  0  0  0  0
   10.6150   -0.4190   23.0910 C   0  0  0  0  0  0  0  0  0  0  0  0
   11.1030    0.4940   24.0400 C   0  0  0  0  0  0  0  0  0  0  0  0
   12.4790    0.6780   24.1610 C   0  0  0  0  0  0  0  0  0  0  0  0
   13.3660   -0.0050   23.3530 C   0  0  0  0  0  0  0  0  0  0  0  0
   11.5190   -1.1150   22.2860 C   0  0  0  0  0  0  0  0  0  0  0  0
   12.8750   -0.8850   22.4210 C   0  0  0  0  0  0  0  0  0  0  0  0
   13.9820   -1.6920   21.3490 Cl  0  0  0  0  0  0  0  0  0  0  0  0
    8.6420    0.0390   21.6360 C   0  0  0  0  0  0  0  0  0  0  0  0
    9.2260    1.0040   21.1500 O   0  0  0  0  0  0  0  0  0  0  0  0
    7.4850   -0.4610   21.1310 N   0  0  0  0  0  0  0  0  0  0  0  0
    6.7250    0.0280   20.0410 C   0  0  0  0  0  0  0  0  0  0  0  0
    5.5160    0.7500   20.3080 C   0  0  0  0  0  0  0  0  0  0  0  0
    4.9660    0.9200   21.6050 C   0  0  0  0  0  0  0  0  0  0  0  0
    3.8160    1.6340   21.7930 C   0  0  0  0  0  0  0  0  0  0  0  0
    3.1630    2.2210   20.7150 C   0  0  0  0  0  0  0  0  0  0  0  0
    3.6500    2.0830   19.4470 C   0  0  0  0  0  0  0  0  0  0  0  0
    4.8290    1.3360   19.2060 C   0  0  0  0  0  0  0  0  0  0  0  0
    5.3730    1.1450   17.9110 C   0  0  0  0  0  0  0  0  0  0  0  0
    6.4810    0.4620   17.6630 N   0  0  0  0  0  0  0  0  0  0  0  0
    7.1230   -0.0770   18.7090 C   0  0  0  0  0  0  0  0  0  0  0  0
  2  1  2  0
  3  2  2  0
  2  4  1  6
  5  4  1  0
  6  5  1  0
  7  6  1  0
  7  4  1  0
  8  2  1  0
  9  8  1  0
 10  8  1  0
 11 10  1  0
 12 11  1  0
 13 12  2  0
 13  9  1  0
 14 13  1  0
 15 14  2  0
 16 12  1  0
 17 16  2  0
 17 15  1  0
 18 17  1  0
 11 19  1  6
 20 19  2  0
 21 19  1  0
 22 21  1  0
 23 22  1  0
 24 23  2  0
 25 24  1  0
 26 25  2  0
 27 26  1  0
 28 27  2  0
 28 23  1  0
 29 28  1  0
 30 29  2  0
 31 30  1  0
 31 22  2  0
M  END
