
     RDKit          3D

 33 37  0  0  0  0  0  0  0  0999 V2000
    9.5170    1.2720   21.1290 O   0  0  0  0  0  0  0  0  0  0  0  0
    8.9950    0.3390   21.7190 C   0  0  0  0  0  0  0  0  0  0  0  0
    7.8250   -0.2050   21.3130 N   0  0  0  0  0  0  0  0  0  0  0  0
    7.0560    0.1660   20.1880 C   0  0  0  0  0  0  0  0  0  0  0  0
    5.8500    0.9060   20.4000 C   0  0  0  0  0  0  0  0  0  0  0  0
    5.3540    1.2610   21.6830 C   0  0  0  0  0  0  0  0  0  0  0  0
    4.2200    2.0110   21.8170 C   0  0  0  0  0  0  0  0  0  0  0  0
    3.5250    2.4470   20.6970 C   0  0  0  0  0  0  0  0  0  0  0  0
    3.9530    2.1200   19.4410 C   0  0  0  0  0  0  0  0  0  0  0  0
    5.1220    1.3380   19.2580 C   0  0  0  0  0  0  0  0  0  0  0  0
    5.6250    0.9850   17.9830 C   0  0  0  0  0  0  0  0  0  0  0  0
    6.7360    0.2870   17.7870 N   0  0  0  0  0  0  0  0  0  0  0  0
    7.4230   -0.1030   18.8680 C   0  0  0  0  0  0  0  0  0  0  0  0
    9.6120   -0.2140   23.0230 C   0  0  1  0  0  0  0  0  0  0  0  0
   11.1290   -0.0210   22.9860 C   0  0  0  0  0  0  0  0  0  0  0  0
   11.9150   -0.8100   22.1520 C   0  0  0  0  0  0  0  0  0  0  0  0
   13.2720   -0.5690   22.0760 C   0  0  0  0  0  0  0  0  0  0  0  0
   14.2120   -1.4340   20.8940 Cl  0  0  0  0  0  0  0  0  0  0  0  0
   13.8870    0.3980   22.8470 C   0  0  0  0  0  0  0  0  0  0  0  0
   13.1230    1.1630   23.7080 C   0  0  0  0  0  0  0  0  0  0  0  0
   11.7550    0.9550   23.7650 C   0  0  0  0  0  0  0  0  0  0  0  0
   11.0650    1.7430   24.6480 O   0  0  0  0  0  0  0  0  0  0  0  0
    9.9130    1.0800   25.1970 C   0  0  0  0  0  0  0  0  0  0  0  0
    8.9400    0.6510   24.1180 C   0  0  0  0  0  0  0  0  0  0  0  0
    9.3370   -1.7250   23.2230 C   0  0  0  0  0  0  0  0  0  0  0  0
    7.9850   -2.0660   23.6590 N   0  0  0  0  0  0  0  0  0  0  0  0
    7.6650   -3.4590   23.4080 C   0  0  0  0  0  0  0  0  0  0  0  0
    8.5200   -4.2860   24.3150 C   0  0  0  0  0  0  0  0  0  0  0  0
    9.3750   -5.3830   23.9920 C   0  0  0  0  0  0  0  0  0  0  0  0
    9.9190   -5.7730   25.1740 C   0  0  0  0  0  0  0  0  0  0  0  0
    8.5420   -4.0270   25.6270 N   0  0  0  0  0  0  0  0  0  0  0  0
    9.3940   -4.9550   26.1360 N   0  0  0  0  0  0  0  0  0  0  0  0
    9.5830   -5.0360   27.5770 C   0  0  0  0  0  0  0  0  0  0  0  0
  2  1  2  0
  3  2  1  0
  4  3  1  0
  5  4  1  0
  6  5  2  0
  7  6  1  0
  8  7  2  0
  9  8  1  0
 10  9  2  0
 10  5  1  0
 11 10  1  0
 12 11  2  0
 13 12  1  0
 13  4  2  0
 14  2  1  0
 15 14  1  0
 16 15  2  0
 17 16  1  0
 18 17  1  0
 19 17  2  0
 20 19  1  0
 21 20  2  0
 21 15  1  0
 22 21  1  0
 23 22  1  0
 24 23  1  0
 24 14  1  0
 14 25  1  1
 26 25  1  0
 27 26  1  0
 28 27  1  0
 29 28  1  0
 30 29  2  0
 31 28  2  0
 32 30  1  0
 32 31  1  0
 33 32  1  0
M  END
