
     RDKit          3D

 23 25  0  0  0  0  0  0  0  0999 V2000
   13.8850   -1.9520   21.2200 Cl  0  0  0  0  0  0  0  0  0  0  0  0
   12.7140   -1.1620   22.2360 C   0  0  0  0  0  0  0  0  0  0  0  0
   13.1280   -0.1770   23.1100 C   0  0  0  0  0  0  0  0  0  0  0  0
   12.1790    0.4500   23.9030 C   0  0  0  0  0  0  0  0  0  0  0  0
   10.8410    0.1010   23.7970 C   0  0  0  0  0  0  0  0  0  0  0  0
   11.3880   -1.5230   22.1260 C   0  0  0  0  0  0  0  0  0  0  0  0
   10.4290   -0.8690   22.8920 C   0  0  0  0  0  0  0  0  0  0  0  0
    8.9620   -1.1100   22.6270 C   0  0  0  0  0  0  0  0  0  0  0  0
    8.5220   -0.3330   21.4020 C   0  0  0  0  0  0  0  0  0  0  0  0
    9.2900    0.4020   20.7930 O   0  0  0  0  0  0  0  0  0  0  0  0
    7.2110   -0.4100   21.1290 N   0  0  0  0  0  0  0  0  0  0  0  0
    6.5230   -0.0530   19.9560 C   0  0  0  0  0  0  0  0  0  0  0  0
    7.0640   -0.0670   18.6730 C   0  0  0  0  0  0  0  0  0  0  0  0
    6.5120    0.5090   17.5980 N   0  0  0  0  0  0  0  0  0  0  0  0
    5.3660    1.1580   17.7710 C   0  0  0  0  0  0  0  0  0  0  0  0
    5.2930    0.6470   20.1420 C   0  0  0  0  0  0  0  0  0  0  0  0
    4.7080    1.2860   19.0150 C   0  0  0  0  0  0  0  0  0  0  0  0
    3.5410    2.0640   19.2010 C   0  0  0  0  0  0  0  0  0  0  0  0
    2.9760    2.1910   20.4350 C   0  0  0  0  0  0  0  0  0  0  0  0
    4.6860    0.8130   21.4080 C   0  0  0  0  0  0  0  0  0  0  0  0
    3.5500    1.5680   21.5360 C   0  0  0  0  0  0  0  0  0  0  0  0
    2.8790    1.7590   22.7160 O   0  0  0  0  0  0  0  0  0  0  0  0
    3.3910    1.1360   23.8960 C   0  0  0  0  0  0  0  0  0  0  0  0
  2  1  1  0
  3  2  2  0
  4  3  1  0
  5  4  2  0
  6  2  1  0
  7  5  1  0
  7  6  2  0
  8  7  1  0
  9  8  1  0
 10  9  2  0
 11  9  1  0
 12 11  1  0
 13 12  2  0
 14 13  1  0
 15 14  2  0
 16 12  1  0
 17 16  2  0
 17 15  1  0
 18 17  1  0
 19 18  2  0
 20 16  1  0
 21 20  2  0
 21 19  1  0
 22 21  1  0
 23 22  1  0
M  END
