
     RDKit          3D

 26 29  0  0  0  0  0  0  0  0999 V2000
    9.2780    1.1760   21.2630 O   0  0  0  0  0  0  0  0  0  0  0  0
    8.8300    0.1010   21.6360 C   0  0  0  0  0  0  0  0  0  0  0  0
    9.4340   -0.6250   22.8610 C   0  0  1  0  0  0  0  0  0  0  0  0
   10.9130   -0.2620   22.9140 C   0  0  0  0  0  0  0  0  0  0  0  0
   11.7910   -0.8140   21.9830 C   0  0  0  0  0  0  0  0  0  0  0  0
   13.1380   -0.5170   22.0580 C   0  0  0  0  0  0  0  0  0  0  0  0
   14.2270   -1.2740   20.9300 Cl  0  0  0  0  0  0  0  0  0  0  0  0
   13.6460    0.3270   23.0230 C   0  0  0  0  0  0  0  0  0  0  0  0
   12.7910    0.8690   23.9650 C   0  0  0  0  0  0  0  0  0  0  0  0
   11.4340    0.5860   23.8980 C   0  0  0  0  0  0  0  0  0  0  0  0
   10.6450    1.2870   24.7800 O   0  0  0  0  0  0  0  0  0  0  0  0
    9.2150    1.2480   24.5560 C   0  0  0  0  0  0  0  0  0  0  0  0
    8.7220   -0.1200   24.1390 C   0  0  0  0  0  0  0  0  0  0  0  0
    9.3160   -2.1700   22.7830 C   0  0  0  0  0  0  0  0  0  0  0  0
    7.9620   -2.7000   22.9290 N   0  0  0  0  0  0  0  0  0  0  0  0
    7.9210   -0.5410   20.8930 N   0  0  0  0  0  0  0  0  0  0  0  0
    6.9190   -0.1600   19.9910 C   0  0  0  0  0  0  0  0  0  0  0  0
    5.8510    0.7130   20.3720 C   0  0  0  0  0  0  0  0  0  0  0  0
    5.3940    0.8640   21.7110 C   0  0  0  0  0  0  0  0  0  0  0  0
    4.2740    1.5920   21.9930 C   0  0  0  0  0  0  0  0  0  0  0  0
    3.5630    2.2240   20.9800 C   0  0  0  0  0  0  0  0  0  0  0  0
    3.9690    2.1250   19.6790 C   0  0  0  0  0  0  0  0  0  0  0  0
    5.1160    1.3630   19.3370 C   0  0  0  0  0  0  0  0  0  0  0  0
    5.5200    1.1400   18.0000 C   0  0  0  0  0  0  0  0  0  0  0  0
    6.5090    0.3330   17.6500 N   0  0  0  0  0  0  0  0  0  0  0  0
    7.1540   -0.3160   18.6260 C   0  0  0  0  0  0  0  0  0  0  0  0
  2  1  2  0
  3  2  1  0
  4  3  1  0
  5  4  2  0
  6  5  1  0
  7  6  1  0
  8  6  2  0
  9  8  1  0
 10  9  2  0
 10  4  1  0
 11 10  1  0
 12 11  1  0
 13 12  1  0
 13  3  1  0
  3 14  1  6
 15 14  1  0
 16  2  1  0
 17 16  1  0
 18 17  1  0
 19 18  2  0
 20 19  1  0
 21 20  2  0
 22 21  1  0
 23 22  2  0
 23 18  1  0
 24 23  1  0
 25 24  2  0
 26 25  1  0
 26 17  2  0
M  END
