
     RDKit          3D

 31 34  0  0  0  0  0  0  0  0999 V2000
    9.0480    1.7310   21.4080 O   0  0  0  0  0  0  0  0  0  0  0  0
    8.8870    0.5280   21.5620 C   0  0  0  0  0  0  0  0  0  0  0  0
    8.2410   -0.1970   20.6210 N   0  0  0  0  0  0  0  0  0  0  0  0
    7.0900    0.0550   19.8370 C   0  0  1  0  0  0  0  0  0  0  0  0
    6.0380    0.8980   20.3290 C   0  0  2  0  0  0  0  0  0  0  0  0
    5.8080    1.1490   21.7090 C   0  0  0  0  0  0  0  0  0  0  0  0
    4.7120    1.8470   22.1240 C   0  0  0  0  0  0  0  0  0  0  0  0
    3.7950    2.3380   21.2070 C   0  0  0  0  0  0  0  0  0  0  0  0
    3.9670    2.1260   19.8700 C   0  0  0  0  0  0  0  0  0  0  0  0
    5.0820    1.3920   19.3940 C   0  0  2  0  0  0  0  0  0  0  0  0
    5.2360    1.0260   18.0360 C   0  0  0  0  0  0  0  0  0  0  0  0
    6.1840    0.2200   17.5870 N   0  0  0  0  0  0  0  0  0  0  0  0
    7.0640   -0.2540   18.4770 C   0  0  0  0  0  0  0  0  0  0  0  0
    9.4770   -0.1950   22.8010 C   0  0  1  0  0  0  0  0  0  0  0  0
   10.9840    0.0240   22.8940 C   0  0  0  0  0  0  0  0  0  0  0  0
   11.8470   -0.7650   22.1380 C   0  0  0  0  0  0  0  0  0  0  0  0
   13.2090   -0.5570   22.2210 C   0  0  0  0  0  0  0  0  0  0  0  0
   14.2660   -1.4920   21.2030 Cl  0  0  0  0  0  0  0  0  0  0  0  0
   13.7500    0.3940   23.0520 C   0  0  0  0  0  0  0  0  0  0  0  0
   12.9120    1.1780   23.8210 C   0  0  0  0  0  0  0  0  0  0  0  0
   11.5410    0.9940   23.7380 C   0  0  0  0  0  0  0  0  0  0  0  0
   10.7910    1.8370   24.5250 O   0  0  0  0  0  0  0  0  0  0  0  0
    9.3500    1.7660   24.4080 C   0  0  0  0  0  0  0  0  0  0  0  0
    8.8310    0.3810   24.0840 C   0  0  0  0  0  0  0  0  0  0  0  0
    9.2140   -1.7080   22.7970 C   0  0  0  0  0  0  0  0  0  0  0  0
    7.8400   -1.9610   23.0420 O   0  0  0  0  0  0  0  0  0  0  0  0
    7.4080   -3.1510   22.4150 C   0  0  0  0  0  0  0  0  0  0  0  0
    6.7740   -4.1280   23.3730 C   0  0  1  0  0  0  0  0  0  0  0  0
    6.3860   -3.7450   24.4750 O   0  0  0  0  0  0  0  0  0  0  0  0
    6.5840   -5.3650   22.9290 N   0  0  0  0  0  0  0  0  0  0  0  0
    5.5750   -6.2450   23.4880 C   0  0  0  0  0  0  0  0  0  0  0  0
  2  1  1  0
  3  2  1  0
  4  3  1  6
  5  4  1  0
  5  6  1  1
  7  6  1  0
  8  7  1  0
  9  8  1  0
 10  9  1  1
 10  5  1  0
 11 10  1  0
 12 11  1  0
 13 12  1  0
 13  4  1  0
 14  2  1  0
 15 14  1  0
 16 15  1  0
 17 16  1  0
 18 17  1  0
 19 17  1  0
 20 19  1  0
 21 20  1  0
 21 15  1  0
 22 21  1  0
 23 22  1  0
 24 23  1  0
 24 14  1  0
 14 25  1  6
 26 25  1  0
 27 26  1  0
 28 27  1  0
 28 29  1  6
 30 28  1  0
 31 30  1  0
M  END
$$$$
