
     RDKit          3D

 20 22  0  0  0  0  0  0  0  0999 V2000
    9.3790    1.1080   21.2360 O   0  0  0  0  0  0  0  0  0  0  0  0
    8.8370    0.1250   21.7300 C   0  0  0  0  0  0  0  0  0  0  0  0
    9.2970   -0.4820   23.0420 C   0  0  0  0  0  0  0  0  0  0  0  0
   10.7920   -0.3860   23.2540 C   0  0  0  0  0  0  0  0  0  0  0  0
   11.3160    0.3360   24.3190 C   0  0  0  0  0  0  0  0  0  0  0  0
   12.6860    0.4800   24.4740 C   0  0  0  0  0  0  0  0  0  0  0  0
   13.5570   -0.0950   23.5600 C   0  0  0  0  0  0  0  0  0  0  0  0
   11.6690   -0.9850   22.3530 C   0  0  0  0  0  0  0  0  0  0  0  0
   13.0320   -0.8210   22.5130 C   0  0  0  0  0  0  0  0  0  0  0  0
   14.1090   -1.5120   21.3310 Cl  0  0  0  0  0  0  0  0  0  0  0  0
    7.7590   -0.4890   21.1600 N   0  0  0  0  0  0  0  0  0  0  0  0
    7.1780   -0.0980   19.9510 C   0  0  0  0  0  0  0  0  0  0  0  0
    6.0470    0.6940   19.9180 N   0  0  0  0  0  0  0  0  0  0  0  0
    5.7470    0.8830   18.5700 C   0  0  0  0  0  0  0  0  0  0  0  0
    6.6350    0.2610   17.7930 N   0  0  0  0  0  0  0  0  0  0  0  0
    7.5120   -0.3420   18.6600 C   0  0  0  0  0  0  0  0  0  0  0  0
    5.2980    1.2730   20.9250 C   0  0  0  0  0  0  0  0  0  0  0  0
    4.2380    2.0480   20.6020 C   0  0  0  0  0  0  0  0  0  0  0  0
    3.8960    2.2560   19.2440 C   0  0  0  0  0  0  0  0  0  0  0  0
    4.6290    1.6840   18.2420 C   0  0  0  0  0  0  0  0  0  0  0  0
  2  1  1  0
  3  2  1  0
  4  3  1  0
  5  4  1  0
  6  5  1  0
  7  6  1  0
  8  4  1  0
  9  8  1  0
  9  7  1  0
 10  9  1  0
 11  2  1  0
 12 11  1  0
 13 12  1  0
 14 13  1  0
 15 14  1  0
 16 15  1  0
 16 12  1  0
 17 13  1  0
 18 17  1  0
 19 18  1  0
 20 19  1  0
 20 14  1  0
M  END
$$$$
