
     RDKit          3D

 27 29  0  0  0  0  0  0  0  0999 V2000
    8.7890    1.0000   20.8530 O   0  0  0  0  0  0  0  0  0  0  0  0
    8.2950   -0.0220   21.3060 C   0  0  0  0  0  0  0  0  0  0  0  0
    7.1530   -0.5610   20.8290 N   0  0  0  0  0  0  0  0  0  0  0  0
    6.4330    0.0170   19.7510 C   0  0  0  0  0  0  0  0  0  0  0  0
    5.2980    0.7980   20.0210 C   0  0  0  0  0  0  0  0  0  0  0  0
    4.7760    0.9860   21.4230 C   0  0  0  0  0  0  0  0  0  0  0  0
    4.6930    1.4400   18.9460 C   0  0  0  0  0  0  0  0  0  0  0  0
    5.2270    1.3010   17.6770 C   0  0  0  0  0  0  0  0  0  0  0  0
    6.3080    0.5590   17.4070 N   0  0  0  0  0  0  0  0  0  0  0  0
    6.8850   -0.0770   18.4330 C   0  0  0  0  0  0  0  0  0  0  0  0
    8.9370   -0.7600   22.4640 C   0  0  0  0  0  0  0  0  0  0  0  0
   10.3300   -0.2440   22.7620 C   0  0  0  0  0  0  0  0  0  0  0  0
   11.4290   -1.0850   22.6430 C   0  0  0  0  0  0  0  0  0  0  0  0
   12.6940   -0.5820   22.8670 C   0  0  0  0  0  0  0  0  0  0  0  0
   14.0490   -1.6750   22.8580 Cl  0  0  0  0  0  0  0  0  0  0  0  0
   12.9090    0.7450   23.1830 C   0  0  0  0  0  0  0  0  0  0  0  0
   10.5360    1.0850   23.1170 C   0  0  0  0  0  0  0  0  0  0  0  0
   11.8160    1.6030   23.3210 C   0  0  0  0  0  0  0  0  0  0  0  0
   12.0190    3.0300   23.7020 C   0  0  0  0  0  0  0  0  0  0  0  0
   13.1530    3.7020   23.2440 C   0  0  0  0  0  0  0  0  0  0  0  0
   13.4250    5.0000   23.6470 C   0  0  0  0  0  0  0  0  0  0  0  0
   11.1780    3.7440   24.5480 C   0  0  0  0  0  0  0  0  0  0  0  0
   10.0920    3.1420   25.0600 F   0  0  0  0  0  0  0  0  0  0  0  0
   11.4470    5.0380   24.9300 C   0  0  0  0  0  0  0  0  0  0  0  0
   10.5780    5.6760   25.7380 F   0  0  0  0  0  0  0  0  0  0  0  0
   12.5870    5.6970   24.5220 C   0  0  0  0  0  0  0  0  0  0  0  0
   12.9850    7.0490   25.0550 C   0  0  0  0  0  0  0  0  0  0  0  0
  2  1  2  0
  3  2  1  0
  4  3  1  0
  5  4  2  0
  6  5  1  0
  7  5  1  0
  8  7  2  0
  9  8  1  0
 10  9  2  0
 10  4  1  0
 11  2  1  0
 12 11  1  0
 13 12  2  0
 14 13  1  0
 15 14  1  0
 16 14  2  0
 17 12  1  0
 18 17  2  0
 18 16  1  0
 19 18  1  0
 20 19  2  0
 21 20  1  0
 22 19  1  0
 23 22  1  0
 24 22  2  0
 25 24  1  0
 26 24  1  0
 26 21  2  0
 27 26  1  0
M  END
