
     RDKit          3D

 25 28  0  0  0  0  0  0  0  0999 V2000
   14.1300   -1.5250   21.3280 Cl  0  0  0  0  0  0  0  0  0  0  0  0
   12.9050   -0.7750   22.3150 C   0  0  0  0  0  0  0  0  0  0  0  0
   11.5950   -1.1710   22.1650 C   0  0  0  0  0  0  0  0  0  0  0  0
   13.2680    0.2060   23.2180 C   0  0  0  0  0  0  0  0  0  0  0  0
   12.2920    0.7920   24.0090 C   0  0  0  0  0  0  0  0  0  0  0  0
   10.9560    0.4050   23.8740 C   0  0  0  0  0  0  0  0  0  0  0  0
    9.9490    0.9330   24.6990 N   0  0  0  0  0  0  0  0  0  0  0  0
   10.2860    1.8590   25.7720 C   0  0  0  0  0  0  0  0  0  0  0  0
   10.6000   -0.5700   22.9300 C   0  0  0  0  0  0  0  0  0  0  0  0
    9.1500   -0.9510   22.7130 C   0  0  1  0  0  0  0  0  0  0  0  0
    8.3280   -0.7400   24.0040 C   0  0  0  0  0  0  0  0  0  0  0  0
    8.5220    0.6760   24.5360 C   0  0  0  0  0  0  0  0  0  0  0  0
    8.5960   -0.1040   21.5660 C   0  0  0  0  0  0  0  0  0  0  0  0
    9.1520    0.9220   21.1750 O   0  0  0  0  0  0  0  0  0  0  0  0
    7.4540   -0.5740   21.0350 N   0  0  0  0  0  0  0  0  0  0  0  0
    6.7320   -0.0300   19.9690 C   0  0  0  0  0  0  0  0  0  0  0  0
    5.6300    0.8300   20.2620 C   0  0  0  0  0  0  0  0  0  0  0  0
    5.1560    1.0880   21.5760 C   0  0  0  0  0  0  0  0  0  0  0  0
    4.1050    1.9350   21.7890 C   0  0  0  0  0  0  0  0  0  0  0  0
    3.4680    2.5550   20.7190 C   0  0  0  0  0  0  0  0  0  0  0  0
    3.8880    2.3370   19.4370 C   0  0  0  0  0  0  0  0  0  0  0  0
    4.9750    1.4680   19.1730 C   0  0  0  0  0  0  0  0  0  0  0  0
    5.4500    1.1920   17.8680 C   0  0  0  0  0  0  0  0  0  0  0  0
    6.4680    0.3860   17.5980 N   0  0  0  0  0  0  0  0  0  0  0  0
    7.0840   -0.2030   18.6330 C   0  0  0  0  0  0  0  0  0  0  0  0
  2  1  1  0
  3  2  2  0
  4  2  1  0
  5  4  2  0
  6  5  1  0
  7  6  1  0
  8  7  1  0
  9  6  2  0
  9  3  1  0
 10  9  1  0
 11 10  1  0
 12 11  1  0
 12  7  1  0
 10 13  1  6
 14 13  2  0
 15 13  1  0
 16 15  1  0
 17 16  1  0
 18 17  2  0
 19 18  1  0
 20 19  2  0
 21 20  1  0
 22 21  2  0
 22 17  1  0
 23 22  1  0
 24 23  2  0
 25 24  1  0
 25 16  2  0
M  END
