
     RDKit          3D

 33 37  0  0  0  0  0  0  0  0999 V2000
   14.0230   -1.6640   21.2530 Cl  0  0  0  0  0  0  0  0  0  0  0  0
   12.8750   -0.9410   22.3430 C   0  0  0  0  0  0  0  0  0  0  0  0
   11.5240   -1.1590   22.1380 C   0  0  0  0  0  0  0  0  0  0  0  0
   13.3270   -0.1400   23.3660 C   0  0  0  0  0  0  0  0  0  0  0  0
   12.4060    0.4640   24.2010 C   0  0  0  0  0  0  0  0  0  0  0  0
   11.0350    0.2800   24.0190 C   0  0  0  0  0  0  0  0  0  0  0  0
   10.0740    0.9520   24.9730 C   0  0  0  0  0  0  0  0  0  0  0  0
    8.7150    0.9240   24.4220 N   0  0  0  0  0  0  0  0  0  0  0  0
    7.6670    2.1040   24.8330 S   0  0  2  0  0  0  0  0  0  0  0  0
    8.2860    2.8780   25.8630 O   0  0  0  0  0  0  0  0  0  0  0  0
    6.4090    1.4780   25.0950 O   0  0  0  0  0  0  0  0  0  0  0  0
    7.5050    3.1240   23.3770 C   0  0  0  0  0  0  0  0  0  0  0  0
    6.8380    4.5160   23.4190 C   0  0  1  0  0  0  0  0  0  0  0  0
    5.3770    4.6860   23.6600 C   0  0  0  0  0  0  0  0  0  0  0  0
    6.3830    5.1780   24.6750 C   0  0  0  0  0  0  0  0  0  0  0  0
    7.2970    5.3280   22.3180 O   0  0  0  0  0  0  0  0  0  0  0  0
    8.2510    6.3670   22.5780 C   0  0  0  0  0  0  0  0  0  0  0  0
   10.5890   -0.5410   22.9690 C   0  0  0  0  0  0  0  0  0  0  0  0
    9.1050   -0.7650   22.7260 C   0  0  1  0  0  0  0  0  0  0  0  0
    8.2780   -0.4070   23.9630 C   0  0  0  0  0  0  0  0  0  0  0  0
    8.6430    0.0310   21.5040 C   0  0  2  0  0  0  0  0  0  0  0  0
    9.2170    1.0500   21.1350 O   0  0  0  0  0  0  0  0  0  0  0  0
    7.5210   -0.4480   20.9140 N   0  0  0  0  0  0  0  0  0  0  0  0
    6.7730    0.1200   19.8570 C   0  0  0  0  0  0  0  0  0  0  0  0
    5.6190    0.8980   20.1860 C   0  0  0  0  0  0  0  0  0  0  0  0
    5.1610    1.1090   21.5120 C   0  0  0  0  0  0  0  0  0  0  0  0
    4.0570    1.8750   21.7620 C   0  0  0  0  0  0  0  0  0  0  0  0
    3.3580    2.4730   20.7180 C   0  0  0  0  0  0  0  0  0  0  0  0
    3.7540    2.2950   19.4230 C   0  0  0  0  0  0  0  0  0  0  0  0
    4.8860    1.4970   19.1200 C   0  0  0  0  0  0  0  0  0  0  0  0
    5.3370    1.2630   17.7970 C   0  0  0  0  0  0  0  0  0  0  0  0
    6.4050    0.5370   17.4930 N   0  0  0  0  0  0  0  0  0  0  0  0
    7.0920   -0.0100   18.5050 C   0  0  0  0  0  0  0  0  0  0  0  0
  2  1  1  0
  3  2  1  0
  4  2  1  0
  5  4  1  0
  6  5  1  0
  7  6  1  0
  8  7  1  0
  9  8  1  0
  9 10  1  1
 11  9  1  0
 12  9  1  0
 13 12  1  1
 14 13  1  0
 15 14  1  0
 15 13  1  0
 16 13  1  0
 17 16  1  0
 18  6  1  0
 18  3  1  0
 19 18  1  0
 19 20  1  1
 20  8  1  0
 21 19  1  0
 21 22  1  1
 23 21  1  0
 24 23  1  0
 25 24  1  0
 26 25  1  0
 27 26  1  0
 28 27  1  0
 29 28  1  0
 30 29  1  0
 30 25  1  0
 31 30  1  0
 32 31  1  0
 33 32  1  0
 33 24  1  0
M  END
$$$$
