
     RDKit          3D

 21 23  0  0  0  0  0  0  0  0999 V2000
    9.0190    0.7270   21.0190 O   0  0  0  0  0  0  0  0  0  0  0  0
    8.3700   -0.2120   21.4760 C   0  0  0  0  0  0  0  0  0  0  0  0
    8.8360   -0.9900   22.6930 C   0  0  0  0  0  0  0  0  0  0  0  0
   10.2540   -0.6680   23.1120 C   0  0  0  0  0  0  0  0  0  0  0  0
   10.5130    0.1020   24.2390 C   0  0  0  0  0  0  0  0  0  0  0  0
   11.8110    0.4730   24.5570 C   0  0  0  0  0  0  0  0  0  0  0  0
   12.8610    0.0730   23.7470 C   0  0  0  0  0  0  0  0  0  0  0  0
   11.3270   -1.0900   22.3330 C   0  0  0  0  0  0  0  0  0  0  0  0
   12.6340   -0.7300   22.6310 C   0  0  0  0  0  0  0  0  0  0  0  0
   13.7820   -1.2330   21.7910 C   0  0  0  0  0  0  0  0  0  0  0  0
    7.1950   -0.6300   20.9540 N   0  0  0  0  0  0  0  0  0  0  0  0
    6.4750   -0.0710   19.8710 C   0  0  0  0  0  0  0  0  0  0  0  0
    5.3770    0.8000   20.1570 C   0  0  0  0  0  0  0  0  0  0  0  0
    4.8880    1.0550   21.4660 C   0  0  0  0  0  0  0  0  0  0  0  0
    3.8400    1.9090   21.6700 C   0  0  0  0  0  0  0  0  0  0  0  0
    3.2280    2.5500   20.6000 C   0  0  0  0  0  0  0  0  0  0  0  0
    3.6580    2.3340   19.3220 C   0  0  0  0  0  0  0  0  0  0  0  0
    4.7370    1.4540   19.0620 C   0  0  0  0  0  0  0  0  0  0  0  0
    5.2180    1.1800   17.7580 C   0  0  0  0  0  0  0  0  0  0  0  0
    6.2260    0.3600   17.4910 N   0  0  0  0  0  0  0  0  0  0  0  0
    6.8230   -0.2440   18.5290 C   0  0  0  0  0  0  0  0  0  0  0  0
  2  1  2  0
  3  2  1  0
  4  3  1  0
  5  4  2  0
  6  5  1  0
  7  6  2  0
  8  4  1  0
  9  8  2  0
  9  7  1  0
 10  9  1  0
 11  2  1  0
 12 11  1  0
 13 12  1  0
 14 13  2  0
 15 14  1  0
 16 15  2  0
 17 16  1  0
 18 17  2  0
 18 13  1  0
 19 18  1  0
 20 19  2  0
 21 20  1  0
 21 12  2  0
M  END
