
     RDKit          3D

 21 23  0  0  0  0  0  0  0  0999 V2000
   14.2580   -1.6380   20.8060 Cl  0  0  0  0  0  0  0  0  0  0  0  0
   13.2120   -0.7790   21.9080 C   0  0  1  0  0  0  0  0  0  0  0  0
   13.7500    0.1810   22.7400 C   0  0  0  0  0  0  0  0  0  0  0  0
   12.9050    0.9490   23.5220 C   0  0  0  0  0  0  0  0  0  0  0  0
   11.8540   -1.0140   21.8560 C   0  0  0  0  0  0  0  0  0  0  0  0
   10.9870   -0.2460   22.6280 C   0  0  0  0  0  0  0  0  0  0  0  0
   11.5350    0.7350   23.4650 C   0  0  0  0  0  0  0  0  0  0  0  0
   10.7800    1.5040   24.3210 O   0  0  0  0  0  0  0  0  0  0  0  0
    9.3350    1.3260   24.3050 C   0  0  0  0  0  0  0  0  0  0  0  0
    8.8890   -0.0690   23.9410 C   0  0  0  0  0  0  0  0  0  0  0  0
    9.4890   -0.4810   22.5900 C   0  0  1  0  0  0  0  0  0  0  0  0
    8.8490    0.2310   21.3940 C   0  0  0  0  0  0  0  0  0  0  0  0
    9.2790    1.3000   20.9590 O   0  0  0  0  0  0  0  0  0  0  0  0
    7.7870   -0.4210   20.8520 N   0  0  0  0  0  0  0  0  0  0  0  0
    6.9610    0.0430   19.7980 C   0  0  1  0  0  0  0  0  0  0  0  0
    5.7280    0.6480   20.1090 C   0  0  0  0  0  0  0  0  0  0  0  0
    5.2220    0.7390   21.5260 C   0  0  0  0  0  0  0  0  0  0  0  0
    7.3530   -0.0020   18.4560 C   0  0  0  0  0  0  0  0  0  0  0  0
    6.6330    0.5150   17.4500 N   0  0  0  0  0  0  0  0  0  0  0  0
    5.4700    1.0940   17.7650 C   0  0  0  0  0  0  0  0  0  0  0  0
    4.9870    1.1810   19.0560 C   0  0  0  0  0  0  0  0  0  0  0  0
  2  1  1  6
  3  2  1  0
  4  3  1  0
  5  2  1  0
  6  5  1  0
  7  6  1  0
  7  4  1  0
  8  7  1  0
  9  8  1  0
 10  9  1  0
 11 10  1  0
 11  6  1  0
 11 12  1  6
 13 12  1  0
 14 12  1  0
 15 14  1  1
 16 15  1  0
 17 16  1  0
 18 15  1  0
 19 18  1  0
 20 19  1  0
 21 20  1  0
 21 16  1  0
M  END
$$$$
