
     RDKit          3D

 38 43  0  0  0  0  0  0  0  0999 V2000
    9.3440    1.4100   20.9360 O   0  0  0  0  0  0  0  0  0  0  0  0
    8.8570    0.4800   21.5640 C   0  0  0  0  0  0  0  0  0  0  0  0
    7.6860   -0.1060   21.2000 N   0  0  0  0  0  0  0  0  0  0  0  0
    6.9080    0.1850   20.0500 C   0  0  0  0  0  0  0  0  0  0  0  0
    5.7270    0.9830   20.2000 C   0  0  0  0  0  0  0  0  0  0  0  0
    5.2240    1.4190   21.4530 C   0  0  0  0  0  0  0  0  0  0  0  0
    4.1050    2.1980   21.5290 C   0  0  0  0  0  0  0  0  0  0  0  0
    3.4330    2.5860   20.3770 C   0  0  0  0  0  0  0  0  0  0  0  0
    3.8780    2.1930   19.1470 C   0  0  0  0  0  0  0  0  0  0  0  0
    5.0320    1.3800   19.0240 C   0  0  0  0  0  0  0  0  0  0  0  0
    5.5440    0.9450   17.7750 C   0  0  0  0  0  0  0  0  0  0  0  0
    6.6220    0.1850   17.6360 N   0  0  0  0  0  0  0  0  0  0  0  0
    7.2730   -0.1790   18.7510 C   0  0  0  0  0  0  0  0  0  0  0  0
    9.5510   -0.0560   22.8350 C   0  0  2  0  0  0  0  0  0  0  0  0
    8.9400    0.7580   24.0000 C   0  0  0  0  0  0  0  0  0  0  0  0
    9.5770    2.1270   24.1230 C   0  0  0  0  0  0  0  0  0  0  0  0
   11.0010    2.0390   24.3140 O   0  0  0  0  0  0  0  0  0  0  0  0
   11.0730    0.1680   22.7520 C   0  0  0  0  0  0  0  0  0  0  0  0
   11.6770    1.2430   23.4220 C   0  0  0  0  0  0  0  0  0  0  0  0
   13.0310    1.5110   23.2930 C   0  0  0  0  0  0  0  0  0  0  0  0
   13.8150    0.6880   22.5060 C   0  0  0  0  0  0  0  0  0  0  0  0
   11.8850   -0.6660   21.9800 C   0  0  0  0  0  0  0  0  0  0  0  0
   13.2340   -0.3870   21.8640 C   0  0  0  0  0  0  0  0  0  0  0  0
   14.2110   -1.3780   20.8160 Cl  0  0  0  0  0  0  0  0  0  0  0  0
    9.2480   -1.5670   22.9650 C   0  0  0  0  0  0  0  0  0  0  0  0
    9.8990   -2.2940   24.1260 C   0  0  0  0  0  0  0  0  0  0  0  0
   10.6350   -1.7400   24.9360 O   0  0  0  0  0  0  0  0  0  0  0  0
    9.6450   -3.6230   24.2170 N   0  0  0  0  0  0  0  0  0  0  0  0
   10.1730   -4.4700   25.3030 C   0  0  2  0  0  0  0  0  0  0  0  0
    9.8810   -5.8900   24.8130 C   0  0  0  0  0  0  0  0  0  0  0  0
    8.6990   -5.7470   23.8740 C   0  0  0  0  0  0  0  0  0  0  0  0
    8.8660   -4.3960   23.2290 C   0  0  0  0  0  0  0  0  0  0  0  0
    9.6230   -4.1660   26.7040 C   0  0  0  0  0  0  0  0  0  0  0  0
    8.1730   -4.3530   26.7860 N   0  0  0  0  0  0  0  0  0  0  0  0
    7.2170   -3.5540   26.2650 C   0  0  0  0  0  0  0  0  0  0  0  0
    6.0090   -4.0390   26.4450 N   0  0  0  0  0  0  0  0  0  0  0  0
    6.2040   -5.2140   27.1390 C   0  0  0  0  0  0  0  0  0  0  0  0
    7.5230   -5.4200   27.3600 C   0  0  0  0  0  0  0  0  0  0  0  0
  2  1  2  0
  3  2  1  0
  4  3  1  0
  5  4  1  0
  6  5  2  0
  7  6  1  0
  8  7  2  0
  9  8  1  0
 10  9  2  0
 10  5  1  0
 11 10  1  0
 12 11  2  0
 13 12  1  0
 13  4  2  0
 14  2  1  0
 15 14  1  0
 16 15  1  0
 17 16  1  0
 18 14  1  0
 19 18  2  0
 19 17  1  0
 20 19  1  0
 21 20  2  0
 22 18  1  0
 23 22  2  0
 23 21  1  0
 24 23  1  0
 14 25  1  1
 26 25  1  0
 27 26  2  0
 28 26  1  0
 29 28  1  0
 30 29  1  0
 31 30  1  0
 32 31  1  0
 32 28  1  0
 29 33  1  1
 34 33  1  0
 35 34  1  0
 36 35  2  0
 37 36  1  0
 38 37  2  0
 38 34  1  0
M  END
> <BADATOMS>
32;33;34;35;36;37
> <BADCOMMENTS>
Weak Density;Weak Density;Weak Density;Weak Density;Weak Density;Weak Density
> <BADATOMNAMES>
[HET]1.C33;[HET]1.N34;[HET]1.C35;[HET]1.N36;[HET]1.C37;[HET]1.C38