
     RDKit          3D

 22 24  0  0  0  0  0  0  0  0999 V2000
    9.3540    0.9450   21.1200 O   0  0  0  0  0  0  0  0  0  0  0  0
    8.8330   -0.0960   21.5260 C   0  0  0  0  0  0  0  0  0  0  0  0
    9.4580   -0.9340   22.6240 C   0  0  0  0  0  0  0  0  0  0  0  0
   10.9300   -0.6360   22.7850 C   0  0  0  0  0  0  0  0  0  0  0  0
   11.8680   -1.3060   22.0080 C   0  0  0  0  0  0  0  0  0  0  0  0
   13.1910   -0.9600   22.1210 C   0  0  1  0  0  0  0  0  0  0  0  0
   14.0780   -1.5390   21.2650 F   0  0  0  0  0  0  0  0  0  0  0  0
   13.6560   -0.0070   22.9950 C   0  0  0  0  0  0  0  0  0  0  0  0
   11.3590    0.3370   23.6840 C   0  0  0  0  0  0  0  0  0  0  0  0
   12.7030    0.6130   23.7680 C   0  0  0  0  0  0  0  0  0  0  0  0
   13.1170    1.5280   24.6870 F   0  0  0  0  0  0  0  0  0  0  0  0
    7.6800   -0.5920   21.0370 N   0  0  0  0  0  0  0  0  0  0  0  0
    6.9030   -0.0720   19.9890 C   0  0  1  0  0  0  0  0  0  0  0  0
    5.7580    0.7110   20.3190 C   0  0  0  0  0  0  0  0  0  0  0  0
    5.3140    0.9410   21.6490 C   0  0  0  0  0  0  0  0  0  0  0  0
    4.2390    1.7470   21.9010 C   0  0  0  0  0  0  0  0  0  0  0  0
    3.5530    2.3570   20.8610 C   0  0  0  0  0  0  0  0  0  0  0  0
    3.9350    2.1590   19.5630 C   0  0  0  0  0  0  0  0  0  0  0  0
    5.0420    1.3320   19.2560 C   0  0  0  0  0  0  0  0  0  0  0  0
    5.5040    1.1140   17.9360 C   0  0  0  0  0  0  0  0  0  0  0  0
    6.5650    0.3770   17.6290 N   0  0  0  0  0  0  0  0  0  0  0  0
    7.2330   -0.1960   18.6390 C   0  0  0  0  0  0  0  0  0  0  0  0
  2  1  1  0
  3  2  1  0
  4  3  1  0
  5  4  1  0
  6  5  1  0
  6  7  1  6
  8  6  1  0
  9  4  1  0
 10  9  1  0
 10  8  1  0
 11 10  1  0
 12  2  1  0
 13 12  1  1
 14 13  1  0
 15 14  1  0
 16 15  1  0
 17 16  1  0
 18 17  1  0
 19 18  1  0
 19 14  1  0
 20 19  1  0
 21 20  1  0
 22 21  1  0
 22 13  1  0
M  END
$$$$
