
     RDKit          3D

 21 23  0  0  0  0  0  0  0  0999 V2000
   14.0550   -1.5480   21.5750 Cl  0  0  0  0  0  0  0  0  0  0  0  0
   12.7320   -0.9160   22.5200 C   0  0  0  0  0  0  0  0  0  0  0  0
   12.9960   -0.0410   23.5490 C   0  0  0  0  0  0  0  0  0  0  0  0
   11.9320    0.4730   24.2760 C   0  0  0  0  0  0  0  0  0  0  0  0
   10.6300    0.1140   23.9590 C   0  0  0  0  0  0  0  0  0  0  0  0
   11.4410   -1.2920   22.2010 C   0  0  0  0  0  0  0  0  0  0  0  0
   10.3710   -0.7680   22.9190 C   0  0  0  0  0  0  0  0  0  0  0  0
    8.9520   -1.1400   22.5520 C   0  0  0  0  0  0  0  0  0  0  0  0
    8.3590   -0.2200   21.5030 C   0  0  0  0  0  0  0  0  0  0  0  0
    8.8610    0.8720   21.2410 O   0  0  0  0  0  0  0  0  0  0  0  0
    7.2520   -0.7070   20.8910 N   0  0  0  0  0  0  0  0  0  0  0  0
    6.5410   -0.0990   19.8250 C   0  0  2  0  0  0  0  0  0  0  0  0
    6.9640   -0.2790   18.5120 C   0  0  0  0  0  0  0  0  0  0  0  0
    6.4080    0.3390   17.4630 N   0  0  0  0  0  0  0  0  0  0  0  0
    5.3870    1.1700   17.6940 C   0  0  0  0  0  0  0  0  0  0  0  0
    5.4550    0.7630   20.0390 C   0  0  0  0  0  0  0  0  0  0  0  0
    4.7810    1.1530   21.1660 N   0  0  0  0  0  0  0  0  0  0  0  0
    4.9860    0.7690   22.5550 C   0  0  0  0  0  0  0  0  0  0  0  0
    4.8490    1.4380   18.9580 C   0  0  0  0  0  0  0  0  0  0  0  0
    3.8230    2.2110   19.5610 C   0  0  0  0  0  0  0  0  0  0  0  0
    3.7840    2.0360   20.8640 N   0  0  0  0  0  0  0  0  0  0  0  0
  2  1  1  0
  3  2  1  0
  4  3  1  0
  5  4  1  0
  6  2  1  0
  7  5  1  0
  7  6  1  0
  8  7  1  0
  9  8  1  0
 10  9  1  0
 11  9  1  0
 12 11  1  1
 13 12  1  0
 14 13  1  0
 15 14  1  0
 16 12  1  0
 17 16  1  0
 18 17  1  0
 19 15  1  0
 19 16  1  0
 20 19  1  0
 21 20  1  0
 21 17  1  0
M  END
$$$$
