
     RDKit          3D

 27 31  0  0  0  0  0  0  0  0999 V2000
    9.2040    1.3760   21.1150 O   0  0  0  0  0  0  0  0  0  0  0  0
    8.7520    0.3270   21.5370 C   0  0  0  0  0  0  0  0  0  0  0  0
    9.1920   -0.4080   22.8080 C   0  0  2  0  0  0  0  0  0  0  0  0
    8.4900    0.2970   23.9970 C   0  0  0  0  0  0  0  0  0  0  0  0
    9.4530    0.6880   25.1020 C   0  0  0  0  0  0  0  0  0  0  0  0
   10.6140    1.3590   24.5860 O   0  0  0  0  0  0  0  0  0  0  0  0
   10.7240   -0.3800   22.9050 C   0  0  2  0  0  0  0  0  0  0  0  0
   11.3370    0.5440   23.7540 C   0  0  0  0  0  0  0  0  0  0  0  0
   12.7140    0.6550   23.8430 C   0  0  0  0  0  0  0  0  0  0  0  0
   13.5080   -0.1550   23.0530 C   0  0  0  0  0  0  0  0  0  0  0  0
   11.5370   -1.2040   22.1260 C   0  0  0  0  0  0  0  0  0  0  0  0
   12.9120   -1.0410   22.1790 C   0  0  1  0  0  0  0  0  0  0  0  0
   13.8980   -1.8140   20.9670 Cl  0  0  0  0  0  0  0  0  0  0  0  0
    7.7250   -0.4200   20.9460 N   0  0  0  0  0  0  0  0  0  0  0  0
    7.5300   -1.6530   21.5640 C   0  0  0  0  0  0  0  0  0  0  0  0
    6.6160   -2.4180   21.2930 O   0  0  0  0  0  0  0  0  0  0  0  0
    8.6040   -1.8210   22.6080 C   0  0  0  0  0  0  0  0  0  0  0  0
    6.9080    0.0630   19.8630 C   0  0  1  0  0  0  0  0  0  0  0  0
    5.8100    0.9160   20.1510 C   0  0  0  0  0  0  0  0  0  0  0  0
    5.3660    1.2450   21.4600 C   0  0  0  0  0  0  0  0  0  0  0  0
    4.2970    2.0750   21.6500 C   0  0  0  0  0  0  0  0  0  0  0  0
    3.6210    2.6200   20.5660 C   0  0  0  0  0  0  0  0  0  0  0  0
    4.0120    2.3370   19.2900 C   0  0  0  0  0  0  0  0  0  0  0  0
    5.1110    1.4770   19.0460 C   0  0  0  0  0  0  0  0  0  0  0  0
    5.5660    1.1470   17.7440 C   0  0  0  0  0  0  0  0  0  0  0  0
    6.5950    0.3470   17.4900 N   0  0  0  0  0  0  0  0  0  0  0  0
    7.2440   -0.1810   18.5380 C   0  0  0  0  0  0  0  0  0  0  0  0
  2  1  1  0
  3  2  1  0
  3  4  1  1
  5  4  1  0
  6  5  1  0
  7  3  1  0
  8  7  1  0
  8  6  1  0
  9  8  1  0
 10  9  1  0
  7 11  1  6
 12 11  1  0
 12 10  1  0
 12 13  1  6
 14  2  1  0
 15 14  1  0
 16 15  1  0
 17 15  1  0
 17  3  1  0
 18 14  1  1
 19 18  1  0
 20 19  1  0
 21 20  1  0
 22 21  1  0
 23 22  1  0
 24 23  1  0
 24 19  1  0
 25 24  1  0
 26 25  1  0
 27 26  1  0
 27 18  1  0
M  END
$$$$
