
     RDKit          3D

 21 23  0  0  0  0  0  0  0  0999 V2000
    9.2200    1.0250   21.1180 O   0  0  0  0  0  0  0  0  0  0  0  0
    8.7710   -0.0670   21.4600 C   0  0  0  0  0  0  0  0  0  0  0  0
    9.3640   -0.8400   22.6220 C   0  0  0  0  0  0  0  0  0  0  0  0
   10.8090   -0.4670   22.8720 C   0  0  0  0  0  0  0  0  0  0  0  0
   11.1530    0.4390   23.8680 C   0  0  0  0  0  0  0  0  0  0  0  0
   12.4770    0.8060   24.0710 C   0  0  0  0  0  0  0  0  0  0  0  0
   13.4800    0.2870   23.2650 C   0  0  0  0  0  0  0  0  0  0  0  0
   11.8170   -1.0100   22.0820 C   0  0  0  0  0  0  0  0  0  0  0  0
   13.1140   -0.6110   22.2940 C   0  0  0  0  0  0  0  0  0  0  0  0
   14.0800   -1.1280   21.4910 F   0  0  0  0  0  0  0  0  0  0  0  0
    7.7130   -0.6660   20.8590 N   0  0  0  0  0  0  0  0  0  0  0  0
    6.8520   -0.1340   19.8670 C   0  0  1  0  0  0  0  0  0  0  0  0
    5.7000    0.6060   20.2860 C   0  0  0  0  0  0  0  0  0  0  0  0
    5.3070    0.7550   21.6430 C   0  0  0  0  0  0  0  0  0  0  0  0
    4.2360    1.5310   21.9830 C   0  0  0  0  0  0  0  0  0  0  0  0
    3.5030    2.1940   21.0070 C   0  0  0  0  0  0  0  0  0  0  0  0
    3.8280    2.0680   19.6850 C   0  0  0  0  0  0  0  0  0  0  0  0
    4.9340    1.2740   19.2870 C   0  0  0  0  0  0  0  0  0  0  0  0
    5.3520    1.1480   17.9400 C   0  0  0  0  0  0  0  0  0  0  0  0
    6.4110    0.4510   17.5520 N   0  0  0  0  0  0  0  0  0  0  0  0
    7.1220   -0.1740   18.4990 C   0  0  0  0  0  0  0  0  0  0  0  0
  2  1  1  0
  3  2  1  0
  4  3  1  0
  5  4  1  0
  6  5  1  0
  7  6  1  0
  8  4  1  0
  9  8  1  0
  9  7  1  0
 10  9  1  0
 11  2  1  0
 12 11  1  1
 13 12  1  0
 14 13  1  0
 15 14  1  0
 16 15  1  0
 17 16  1  0
 18 17  1  0
 18 13  1  0
 19 18  1  0
 20 19  1  0
 21 20  1  0
 21 12  1  0
M  END
$$$$
