
     RDKit          3D

 17 18  0  0  0  0  0  0  0  0999 V2000
    6.7910   -4.3720   20.9250 C   0  0  0  0  0  0  0  0  0  0  0  0
    8.1840   -3.9830   20.4800 C   0  0  0  0  0  0  0  0  0  0  0  0
    7.7210   -4.7380   23.1650 C   0  0  0  0  0  0  0  0  0  0  0  0
    8.5320   -5.8570   23.3290 C   0  0  0  0  0  0  0  0  0  0  0  0
    9.5840   -5.8260   24.2290 C   0  0  0  0  0  0  0  0  0  0  0  0
    9.8360   -4.6970   24.9730 C   0  0  0  0  0  0  0  0  0  0  0  0
    9.0380   -3.5890   24.8210 C   0  0  0  0  0  0  0  0  0  0  0  0
    7.9780   -3.6010   23.9240 C   0  0  0  0  0  0  0  0  0  0  0  0
    5.3080   -5.2530   22.6440 C   0  0  1  0  0  0  0  0  0  0  0  0
    5.1300   -6.7260   22.2690 C   0  0  0  0  0  0  0  0  0  0  0  0
    4.1230   -7.2960   22.9310 C   0  0  0  0  0  0  0  0  0  0  0  0
    5.0560   -5.1980   24.1640 C   0  0  0  0  0  0  0  0  0  0  0  0
    6.6180   -4.7720   22.2320 N   0  0  0  0  0  0  0  0  0  0  0  0
    5.8610   -4.3410   20.1300 O   0  0  0  0  0  0  0  0  0  0  0  0
    4.4610   -7.4070   25.5130 O   0  0  0  0  0  0  0  0  0  0  0  0
    2.5930   -6.0580   24.6520 O   0  0  0  0  0  0  0  0  0  0  0  0
    3.9380   -6.5430   24.4890 S   0  0  2  0  0  0  0  0  0  0  0  0
  2  1  1  0
  4  3  2  0
  5  4  1  0
  6  5  2  0
  7  6  1  0
  8  7  2  0
  8  3  1  0
 10  9  1  0
 11 10  2  0
 12  9  1  0
  9 13  1  1
 13  1  1  0
 13  3  1  0
 14  1  2  0
 17 16  2  0
 17 15  2  0
 17 11  1  6
 17 12  1  0
M  END
