
     RDKit          3D

 23 26  0  0  0  0  0  0  0  0999 V2000
    9.0210    1.1030   21.1050 O   0  0  0  0  0  0  0  0  0  0  0  0
    8.5290    0.0020   21.2870 C   0  0  0  0  0  0  0  0  0  0  0  0
    9.2140   -1.2240   21.8650 C   0  0  1  0  0  0  0  0  0  0  0  0
   10.4620   -0.8530   22.6530 C   0  0  0  0  0  0  0  0  0  0  0  0
   10.3990   -0.1750   23.8630 C   0  0  0  0  0  0  0  0  0  0  0  0
   11.5590    0.1620   24.5450 C   0  0  0  0  0  0  0  0  0  0  0  0
   12.7990   -0.1660   24.0190 C   0  0  0  0  0  0  0  0  0  0  0  0
   11.7050   -1.1840   22.1280 C   0  0  0  0  0  0  0  0  0  0  0  0
   12.8500   -0.8240   22.8070 C   0  0  0  0  0  0  0  0  0  0  0  0
   14.3940   -1.1440   22.0750 Cl  0  0  0  0  0  0  0  0  0  0  0  0
    7.2480   -0.3700   21.0090 N   0  0  0  0  0  0  0  0  0  0  0  0
    6.7960   -1.5010   21.8490 C   0  0  0  0  0  0  0  0  0  0  0  0
    8.0510   -1.8840   22.6420 C   0  0  0  0  0  0  0  0  0  0  0  0
    6.4530    0.1620   19.9420 C   0  0  0  0  0  0  0  0  0  0  0  0
    5.3140    0.9980   20.1500 C   0  0  0  0  0  0  0  0  0  0  0  0
    4.7810    1.3190   21.4270 C   0  0  0  0  0  0  0  0  0  0  0  0
    3.6820    2.1200   21.5490 C   0  0  0  0  0  0  0  0  0  0  0  0
    3.0590    2.6450   20.4250 C   0  0  0  0  0  0  0  0  0  0  0  0
    3.5300    2.3670   19.1750 C   0  0  0  0  0  0  0  0  0  0  0  0
    4.6670    1.5380   19.0000 C   0  0  0  0  0  0  0  0  0  0  0  0
    5.1940    1.2070   17.7280 C   0  0  0  0  0  0  0  0  0  0  0  0
    6.2440    0.4230   17.5390 N   0  0  0  0  0  0  0  0  0  0  0  0
    6.8410   -0.0800   18.6270 C   0  0  0  0  0  0  0  0  0  0  0  0
  2  1  2  0
  3  2  1  0
  3  4  1  1
  5  4  2  0
  6  5  1  0
  7  6  2  0
  8  4  1  0
  9  8  2  0
  9  7  1  0
 10  9  1  0
 11  2  1  0
 12 11  1  0
 13 12  1  0
 13  3  1  0
 14 11  1  0
 15 14  1  0
 16 15  2  0
 17 16  1  0
 18 17  2  0
 19 18  1  0
 20 19  2  0
 20 15  1  0
 21 20  1  0
 22 21  2  0
 23 22  1  0
 23 14  2  0
M  END
