
     RDKit          3D

 27 31  0  0  0  0  0  0  0  0999 V2000
    9.2970    1.1250   21.1370 O   0  0  0  0  0  0  0  0  0  0  0  0
    8.7740    0.2230   21.7640 C   0  0  0  0  0  0  0  0  0  0  0  0
    9.4220   -0.3340   23.0300 C   0  0  2  0  0  0  0  0  0  0  0  0
    8.7160    0.3490   24.2270 C   0  0  0  0  0  0  0  0  0  0  0  0
    9.3750    1.6440   24.6430 C   0  0  0  0  0  0  0  0  0  0  0  0
   10.7820    1.4290   24.9010 N   0  0  0  0  0  0  0  0  0  0  0  0
   10.9470   -0.1330   23.0670 C   0  0  0  0  0  0  0  0  0  0  0  0
   11.5430    0.7420   23.9910 C   0  0  0  0  0  0  0  0  0  0  0  0
   12.9280    0.9040   24.0010 C   0  0  0  0  0  0  0  0  0  0  0  0
   13.7170    0.2140   23.1010 C   0  0  0  0  0  0  0  0  0  0  0  0
   11.7540   -0.8370   22.1760 C   0  0  0  0  0  0  0  0  0  0  0  0
   13.1230   -0.6380   22.2010 C   0  0  1  0  0  0  0  0  0  0  0  0
   14.1120   -1.4260   21.0010 Cl  0  0  0  0  0  0  0  0  0  0  0  0
    7.5620   -0.2950   21.3900 N   0  0  0  0  0  0  0  0  0  0  0  0
    7.1760   -1.6990   21.6130 C   0  0  0  0  0  0  0  0  0  0  0  0
    7.6850   -2.2100   22.9420 C   0  0  0  0  0  0  0  0  0  0  0  0
    9.1550   -1.8560   23.1190 C   0  0  0  0  0  0  0  0  0  0  0  0
    6.8310    0.2470   20.2790 C   0  0  2  0  0  0  0  0  0  0  0  0
    5.6890    1.0800   20.4710 C   0  0  0  0  0  0  0  0  0  0  0  0
    5.2200    1.5000   21.7440 C   0  0  0  0  0  0  0  0  0  0  0  0
    4.1230    2.3030   21.8580 C   0  0  0  0  0  0  0  0  0  0  0  0
    3.4380    2.7320   20.7290 C   0  0  0  0  0  0  0  0  0  0  0  0
    3.8440    2.3530   19.4820 C   0  0  0  0  0  0  0  0  0  0  0  0
    4.9770    1.5170   19.3170 C   0  0  0  0  0  0  0  0  0  0  0  0
    5.4490    1.0960   18.0480 C   0  0  0  0  0  0  0  0  0  0  0  0
    6.5110    0.3260   17.8720 N   0  0  0  0  0  0  0  0  0  0  0  0
    7.1710   -0.0760   18.9670 C   0  0  0  0  0  0  0  0  0  0  0  0
  2  1  1  0
  3  2  1  0
  3  4  1  1
  5  4  1  0
  6  5  1  0
  7  3  1  0
  8  6  1  0
  8  7  1  0
  9  8  1  0
 10  9  1  0
 11  7  1  0
 12 11  1  0
 12 10  1  0
 12 13  1  6
 14  2  1  0
 15 14  1  0
 16 15  1  0
 17 16  1  0
 17  3  1  0
 18 14  1  1
 19 18  1  0
 20 19  1  0
 21 20  1  0
 22 21  1  0
 23 22  1  0
 24 23  1  0
 24 19  1  0
 25 24  1  0
 26 25  1  0
 27 26  1  0
 27 18  1  0
M  END
$$$$
