
     RDKit          3D

 23 25  0  0  0  0  0  0  0  0999 V2000
   13.8310   -1.7960   21.8070 Cl  0  0  0  0  0  0  0  0  0  0  0  0
   12.4970   -0.9870   22.5590 C   0  0  0  0  0  0  0  0  0  0  0  0
   12.7150    0.0320   23.4720 C   0  0  0  0  0  0  0  0  0  0  0  0
   14.3040    0.6540   23.7410 Cl  0  0  0  0  0  0  0  0  0  0  0  0
   11.6450    0.6580   24.0800 C   0  0  0  0  0  0  0  0  0  0  0  0
   10.3590    0.2960   23.7410 C   0  0  0  0  0  0  0  0  0  0  0  0
   11.2040   -1.3470   22.2200 C   0  0  0  0  0  0  0  0  0  0  0  0
   10.1220   -0.6880   22.7950 C   0  0  0  0  0  0  0  0  0  0  0  0
    8.7180   -0.9420   22.3070 C   0  0  2  0  0  0  0  0  0  0  0  0
    8.2510   -2.2840   22.3670 O   0  0  0  0  0  0  0  0  0  0  0  0
    8.0630   -0.0830   21.2300 C   0  0  0  0  0  0  0  0  0  0  0  0
    8.4820    1.0560   21.0250 O   0  0  0  0  0  0  0  0  0  0  0  0
    7.0560   -0.6400   20.5300 N   0  0  0  0  0  0  0  0  0  0  0  0
    6.3120   -0.0400   19.5030 C   0  0  0  0  0  0  0  0  0  0  0  0
    5.2590    0.8590   19.8540 C   0  0  0  0  0  0  0  0  0  0  0  0
    4.8370    1.1010   21.1890 C   0  0  0  0  0  0  0  0  0  0  0  0
    3.8550    2.0130   21.4610 C   0  0  0  0  0  0  0  0  0  0  0  0
    3.2390    2.7160   20.4350 C   0  0  0  0  0  0  0  0  0  0  0  0
    3.6050    2.5120   19.1350 C   0  0  0  0  0  0  0  0  0  0  0  0
    4.6260    1.5840   18.8110 C   0  0  0  0  0  0  0  0  0  0  0  0
    5.0780    1.3570   17.4890 C   0  0  0  0  0  0  0  0  0  0  0  0
    6.0450    0.5130   17.1630 N   0  0  0  0  0  0  0  0  0  0  0  0
    6.6380   -0.1610   18.1540 C   0  0  0  0  0  0  0  0  0  0  0  0
  2  1  1  0
  3  2  2  0
  4  3  1  0
  5  3  1  0
  6  5  2  0
  7  2  1  0
  8  6  1  0
  8  7  2  0
  9  8  1  0
  9 10  1  6
 11  9  1  0
 12 11  2  0
 13 11  1  0
 14 13  1  0
 15 14  1  0
 16 15  2  0
 17 16  1  0
 18 17  2  0
 19 18  1  0
 20 19  2  0
 20 15  1  0
 21 20  1  0
 22 21  2  0
 23 22  1  0
 23 14  2  0
M  END
