
     RDKit          3D

 23 26  0  0  0  0  0  0  0  0999 V2000
    9.2320    1.4880   21.1550 O   0  0  0  0  0  0  0  0  0  0  0  0
    8.8300    0.4070   21.5570 C   0  0  0  0  0  0  0  0  0  0  0  0
    9.4290   -0.4380   22.6770 C   0  0  2  0  0  0  0  0  0  0  0  0
   10.9350   -0.3090   22.8400 C   0  0  0  0  0  0  0  0  0  0  0  0
   11.4690    0.6000   23.7450 C   0  0  0  0  0  0  0  0  0  0  0  0
   12.8400    0.8000   23.8260 C   0  0  0  0  0  0  0  0  0  0  0  0
   13.6990    0.0960   22.9950 C   0  0  0  0  0  0  0  0  0  0  0  0
   11.7990   -1.0430   22.0310 C   0  0  0  0  0  0  0  0  0  0  0  0
   13.1600   -0.8150   22.1040 C   0  0  0  0  0  0  0  0  0  0  0  0
   14.2150   -1.6390   20.9860 Cl  0  0  0  0  0  0  0  0  0  0  0  0
    7.7410   -0.2650   21.0770 N   0  0  0  0  0  0  0  0  0  0  0  0
    7.5470   -1.5730   21.7230 C   0  0  0  0  0  0  0  0  0  0  0  0
    8.9190   -1.8580   22.3270 C   0  0  0  0  0  0  0  0  0  0  0  0
    6.8680    0.2090   20.0470 C   0  0  0  0  0  0  0  0  0  0  0  0
    5.7150    1.0040   20.3300 C   0  0  0  0  0  0  0  0  0  0  0  0
    5.3020    1.3680   21.6410 C   0  0  0  0  0  0  0  0  0  0  0  0
    4.2110    2.1690   21.8360 C   0  0  0  0  0  0  0  0  0  0  0  0
    3.4840    2.6530   20.7560 C   0  0  0  0  0  0  0  0  0  0  0  0
    3.8450    2.3380   19.4760 C   0  0  0  0  0  0  0  0  0  0  0  0
    4.9640    1.5040   19.2270 C   0  0  0  0  0  0  0  0  0  0  0  0
    5.4050    1.1690   17.9240 C   0  0  0  0  0  0  0  0  0  0  0  0
    6.4770    0.4360   17.6650 N   0  0  0  0  0  0  0  0  0  0  0  0
    7.1760   -0.0240   18.7110 C   0  0  0  0  0  0  0  0  0  0  0  0
  2  1  2  0
  3  2  1  0
  3  4  1  6
  5  4  2  0
  6  5  1  0
  7  6  2  0
  8  4  1  0
  9  8  2  0
  9  7  1  0
 10  9  1  0
 11  2  1  0
 12 11  1  0
 13 12  1  0
 13  3  1  0
 14 11  1  0
 15 14  1  0
 16 15  2  0
 17 16  1  0
 18 17  2  0
 19 18  1  0
 20 19  2  0
 20 15  1  0
 21 20  1  0
 22 21  2  0
 23 22  1  0
 23 14  2  0
M  END
