
     RDKit          3D

 26 30  0  0  0  0  0  0  0  0999 V2000
    9.2280    1.3590   21.2130 O   0  0  0  0  0  0  0  0  0  0  0  0
    8.7130    0.3580   21.6730 C   0  0  0  0  0  0  0  0  0  0  0  0
    9.1870   -0.4120   22.9070 C   0  0  1  0  0  0  0  0  0  0  0  0
   10.6850   -0.5210   23.0090 C   0  0  0  0  0  0  0  0  0  0  0  0
   11.6060   -1.1560   22.1840 C   0  0  0  0  0  0  0  0  0  0  0  0
   12.9550   -0.9790   22.4460 C   0  0  0  0  0  0  0  0  0  0  0  0
   14.1250   -1.6900   21.3640 Cl  0  0  0  0  0  0  0  0  0  0  0  0
   13.3990   -0.2210   23.5140 C   0  0  0  0  0  0  0  0  0  0  0  0
   12.4750    0.3880   24.3480 C   0  0  0  0  0  0  0  0  0  0  0  0
   11.1240    0.2380   24.0780 C   0  0  0  0  0  0  0  0  0  0  0  0
   10.0950    0.7970   24.8070 O   0  0  0  0  0  0  0  0  0  0  0  0
    8.8480    0.3560   24.2010 C   0  0  0  0  0  0  0  0  0  0  0  0
    8.5020   -1.7900   22.7340 C   0  0  0  0  0  0  0  0  0  0  0  0
    7.2410   -1.4760   21.9350 C   0  0  0  0  0  0  0  0  0  0  0  0
    7.5930   -0.2520   21.1910 N   0  0  0  0  0  0  0  0  0  0  0  0
    6.7920    0.2300   20.1040 C   0  0  0  0  0  0  0  0  0  0  0  0
    7.1070   -0.0670   18.7810 C   0  0  0  0  0  0  0  0  0  0  0  0
    6.4290    0.3610   17.7080 N   0  0  0  0  0  0  0  0  0  0  0  0
    5.3690    1.1250   17.9210 C   0  0  0  0  0  0  0  0  0  0  0  0
    5.6520    1.0640   20.3380 C   0  0  0  0  0  0  0  0  0  0  0  0
    5.2360    1.4810   21.6340 C   0  0  0  0  0  0  0  0  0  0  0  0
    4.1550    2.2940   21.7460 C   0  0  0  0  0  0  0  0  0  0  0  0
    3.7480    2.6640   22.9940 F   0  0  0  0  0  0  0  0  0  0  0  0
    4.9190    1.5200   19.2070 C   0  0  0  0  0  0  0  0  0  0  0  0
    3.8010    2.3680   19.4100 C   0  0  0  0  0  0  0  0  0  0  0  0
    3.4330    2.7490   20.6670 C   0  0  0  0  0  0  0  0  0  0  0  0
  2  1  2  0
  3  2  1  0
  4  3  1  0
  5  4  2  0
  6  5  1  0
  7  6  1  0
  8  6  2  0
  9  8  1  0
 10  4  1  0
 10  9  2  0
 11 10  1  0
 12 11  1  0
  3 12  1  1
 13  3  1  0
 14 13  1  0
 15  2  1  0
 15 14  1  0
 16 15  1  0
 17 16  2  0
 18 17  1  0
 19 18  2  0
 20 16  1  0
 21 20  2  0
 22 21  1  0
 23 22  1  0
 24 19  1  0
 24 20  1  0
 25 24  2  0
 26 25  1  0
 26 22  2  0
M  END
