
     RDKit          3D

 26 29  0  0  0  0  0  0  0  0999 V2000
   14.1400   -1.5830   21.1280 Cl  0  0  0  0  0  0  0  0  0  0  0  0
   13.0690   -0.7000   22.1850 C   0  0  1  0  0  0  0  0  0  0  0  0
   13.5790    0.3250   22.9530 C   0  0  0  0  0  0  0  0  0  0  0  0
   12.7120    1.1310   23.6680 C   0  0  0  0  0  0  0  0  0  0  0  0
   11.7150   -0.9680   22.1400 C   0  0  0  0  0  0  0  0  0  0  0  0
   10.8270   -0.1620   22.8510 C   0  0  0  0  0  0  0  0  0  0  0  0
   11.3490    0.8820   23.6150 C   0  0  1  0  0  0  0  0  0  0  0  0
   10.5550    1.6700   24.4060 O   0  0  0  0  0  0  0  0  0  0  0  0
    9.4690    0.9340   24.9950 C   0  0  0  0  0  0  0  0  0  0  0  0
    8.5440    0.3190   23.9640 C   0  0  0  0  0  0  0  0  0  0  0  0
    9.3270   -0.3820   22.8150 C   0  0  1  0  0  0  0  0  0  0  0  0
    8.8460    0.1730   21.4730 C   0  0  2  0  0  0  0  0  0  0  0  0
    9.3900    1.1280   20.9330 O   0  0  0  0  0  0  0  0  0  0  0  0
    7.7420   -0.4320   20.9710 N   0  0  0  0  0  0  0  0  0  0  0  0
    6.9160    0.0030   19.9110 C   0  0  2  0  0  0  0  0  0  0  0  0
    7.2440   -0.0990   18.5570 C   0  0  0  0  0  0  0  0  0  0  0  0
    6.5550    0.4590   17.5510 N   0  0  0  0  0  0  0  0  0  0  0  0
    5.4770    1.1640   17.8640 C   0  0  0  0  0  0  0  0  0  0  0  0
    5.7290    0.7290   20.2450 C   0  0  0  0  0  0  0  0  0  0  0  0
    5.0030    1.3470   19.1860 C   0  0  0  0  0  0  0  0  0  0  0  0
    3.8620    2.1240   19.5010 C   0  0  0  0  0  0  0  0  0  0  0  0
    3.4520    2.2710   20.7920 C   0  0  0  0  0  0  0  0  0  0  0  0
    5.2600    0.8840   21.5740 C   0  0  0  0  0  0  0  0  0  0  0  0
    4.1450    1.6420   21.8320 C   0  0  0  0  0  0  0  0  0  0  0  0
    3.7200    1.7590   23.1370 O   0  0  0  0  0  0  0  0  0  0  0  0
    2.5620    2.5520   23.4230 C   0  0  0  0  0  0  0  0  0  0  0  0
  2  1  1  6
  3  2  1  0
  4  3  1  0
  5  2  1  0
  6  5  1  0
  7  6  1  0
  7  4  1  1
  8  7  1  0
  9  8  1  0
 10  9  1  0
 11 10  1  1
 11  6  1  0
 12 11  1  0
 12 13  1  1
 14 12  1  0
 15 14  1  1
 16 15  1  0
 17 16  1  0
 18 17  1  0
 19 15  1  0
 20 19  1  0
 20 18  1  0
 21 20  1  0
 22 21  1  0
 23 19  1  0
 24 23  1  0
 24 22  1  0
 25 24  1  0
 26 25  1  0
M  END
$$$$
