
     RDKit          3D

 32 36  0  0  0  0  0  0  0  0999 V2000
    8.9990    0.9910   21.2120 O   0  0  0  0  0  0  0  0  0  0  0  0
    8.4430   -0.0380   21.5360 C   0  0  0  0  0  0  0  0  0  0  0  0
    7.3780   -0.6440   20.8650 N   0  0  0  0  0  0  0  0  0  0  0  0
    6.6510   -0.0170   19.7880 C   0  0  0  0  0  0  0  0  0  0  0  0
    5.5850    0.8660   20.1010 C   0  0  0  0  0  0  0  0  0  0  0  0
    5.2030    1.2160   21.4220 C   0  0  0  0  0  0  0  0  0  0  0  0
    4.1980    2.1120   21.6510 C   0  0  0  0  0  0  0  0  0  0  0  0
    3.5120    2.6870   20.5880 C   0  0  0  0  0  0  0  0  0  0  0  0
    3.8350    2.3790   19.2980 C   0  0  0  0  0  0  0  0  0  0  0  0
    4.8870    1.4710   19.0180 C   0  0  0  0  0  0  0  0  0  0  0  0
    5.3200    1.1620   17.7040 C   0  0  0  0  0  0  0  0  0  0  0  0
    6.3320    0.3440   17.4230 N   0  0  0  0  0  0  0  0  0  0  0  0
    6.9740   -0.2310   18.4530 C   0  0  0  0  0  0  0  0  0  0  0  0
    7.1630   -1.9620   21.2740 C   0  0  0  0  0  0  0  0  0  0  0  0
    6.2710   -2.6770   20.8500 O   0  0  0  0  0  0  0  0  0  0  0  0
    8.2010   -2.2960   22.3130 C   0  0  0  0  0  0  0  0  0  0  0  0
    8.8110   -0.9400   22.7170 C   0  0  1  0  0  0  0  0  0  0  0  0
   10.3260   -0.9710   22.9520 C   0  0  0  0  0  0  0  0  0  0  0  0
   11.1770   -1.5620   22.0210 C   0  0  0  0  0  0  0  0  0  0  0  0
   12.5410   -1.5650   22.2560 C   0  0  1  0  0  0  0  0  0  0  0  0
   13.6050   -2.2130   21.0420 Cl  0  0  0  0  0  0  0  0  0  0  0  0
   13.0740   -1.0220   23.4000 C   0  0  0  0  0  0  0  0  0  0  0  0
   12.2340   -0.4430   24.3260 C   0  0  0  0  0  0  0  0  0  0  0  0
   10.8550   -0.3950   24.1180 C   0  0  0  0  0  0  0  0  0  0  0  0
    9.9710    0.3150   25.1140 C   0  0  0  0  0  0  0  0  0  0  0  0
    8.0110   -0.3960   23.9310 C   0  0  0  0  0  0  0  0  0  0  0  0
    8.6980    0.7540   24.5180 N   0  0  0  0  0  0  0  0  0  0  0  0
    7.8620    1.5070   25.4570 C   0  0  0  0  0  0  0  0  0  0  0  0
    7.3010    2.8190   24.9290 C   0  0  0  0  0  0  0  0  0  0  0  0
    6.8340    3.6580   25.6990 O   0  0  0  0  0  0  0  0  0  0  0  0
    7.3570    3.0150   23.6160 N   0  0  0  0  0  0  0  0  0  0  0  0
    7.0350    4.2930   23.0040 C   0  0  0  0  0  0  0  0  0  0  0  0
  2  1  1  0
  3  2  1  0
  4  3  1  0
  5  4  1  0
  6  5  1  0
  7  6  1  0
  8  7  1  0
  9  8  1  0
 10  9  1  0
 10  5  1  0
 11 10  1  0
 12 11  1  0
 13 12  1  0
 13  4  1  0
 14  3  1  0
 15 14  1  0
 16 14  1  0
 17  2  1  0
 17 16  1  6
 18 17  1  0
 19 18  1  0
 20 19  1  0
 20 21  1  6
 22 20  1  0
 23 22  1  0
 24 18  1  0
 24 23  1  0
 25 24  1  0
 26 17  1  0
 27 26  1  0
 27 25  1  0
 28 27  1  0
 29 28  1  0
 30 29  1  0
 31 29  1  0
 32 31  1  0
M  END
$$$$
