
     RDKit          3D

 21 23  0  0  0  0  0  0  0  0999 V2000
   13.7580   -1.4780   21.1830 Cl  0  0  0  0  0  0  0  0  0  0  0  0
   12.6280   -0.6340   22.2070 C   0  0  0  0  0  0  0  0  0  0  0  0
   13.0850    0.3730   23.0260 C   0  0  0  0  0  0  0  0  0  0  0  0
   12.1920    1.0230   23.8580 C   0  0  0  0  0  0  0  0  0  0  0  0
   11.2950   -0.9890   22.1650 C   0  0  0  0  0  0  0  0  0  0  0  0
   10.3770   -0.3300   22.9780 C   0  0  0  0  0  0  0  0  0  0  0  0
   10.8530    0.6570   23.8460 C   0  0  0  0  0  0  0  0  0  0  0  0
   10.0630    1.2500   24.8010 O   0  0  0  0  0  0  0  0  0  0  0  0
    8.6500    1.2730   24.5140 C   0  0  0  0  0  0  0  0  0  0  0  0
    8.1380   -0.0940   24.1340 C   0  0  0  0  0  0  0  0  0  0  0  0
    8.8890   -0.6170   22.8990 C   0  0  1  0  0  0  0  0  0  0  0  0
    8.3370    0.0500   21.6370 C   0  0  0  0  0  0  0  0  0  0  0  0
    8.8530    1.0550   21.1470 O   0  0  0  0  0  0  0  0  0  0  0  0
    7.2390   -0.5500   21.1210 N   0  0  0  0  0  0  0  0  0  0  0  0
    6.5190   -0.0810   19.9950 C   0  0  0  0  0  0  0  0  0  0  0  0
    5.3380    0.6610   20.1880 C   0  0  0  0  0  0  0  0  0  0  0  0
    4.7220    0.8440   21.5510 C   0  0  0  0  0  0  0  0  0  0  0  0
    7.0020   -0.2360   18.6950 C   0  0  0  0  0  0  0  0  0  0  0  0
    6.4160    0.3020   17.6170 N   0  0  0  0  0  0  0  0  0  0  0  0
    5.3040    1.0170   17.8160 C   0  0  0  0  0  0  0  0  0  0  0  0
    4.7390    1.2160   19.0580 C   0  0  0  0  0  0  0  0  0  0  0  0
  2  1  1  0
  3  2  2  0
  4  3  1  0
  5  2  1  0
  6  5  2  0
  7  6  1  0
  7  4  2  0
  8  7  1  0
  9  8  1  0
 10  9  1  0
 11 10  1  0
 11  6  1  0
 11 12  1  6
 13 12  2  0
 14 12  1  0
 15 14  1  0
 16 15  2  0
 17 16  1  0
 18 15  1  0
 19 18  2  0
 20 19  1  0
 21 20  2  0
 21 16  1  0
M  END
