
     RDKit          3D

 38 43  0  0  0  0  0  0  0  0999 V2000
    9.4930    1.2420   21.0740 O   0  0  0  0  0  0  0  0  0  0  0  0
    8.9880    0.2560   21.5970 C   0  0  0  0  0  0  0  0  0  0  0  0
    7.8270   -0.2840   21.1380 N   0  0  0  0  0  0  0  0  0  0  0  0
    7.0340    0.1610   20.0470 C   0  0  0  0  0  0  0  0  0  0  0  0
    5.8300    0.8890   20.3200 C   0  0  0  0  0  0  0  0  0  0  0  0
    5.3730    1.1960   21.6270 C   0  0  0  0  0  0  0  0  0  0  0  0
    4.2440    1.9420   21.8210 C   0  0  0  0  0  0  0  0  0  0  0  0
    3.5200    2.4230   20.7380 C   0  0  0  0  0  0  0  0  0  0  0  0
    3.9080    2.1440   19.4600 C   0  0  0  0  0  0  0  0  0  0  0  0
    5.0670    1.3650   19.2140 C   0  0  0  0  0  0  0  0  0  0  0  0
    5.5310    1.0620   17.9100 C   0  0  0  0  0  0  0  0  0  0  0  0
    6.6380    0.3830   17.6540 N   0  0  0  0  0  0  0  0  0  0  0  0
    7.3610   -0.0380   18.7020 C   0  0  0  0  0  0  0  0  0  0  0  0
    9.6510   -0.4090   22.8280 C   0  0  2  0  0  0  0  0  0  0  0  0
    9.0980    0.3300   24.0720 C   0  0  0  0  0  0  0  0  0  0  0  0
    9.6510    1.7360   24.1850 C   0  0  0  0  0  0  0  0  0  0  0  0
   11.0860    1.7400   24.3180 O   0  0  0  0  0  0  0  0  0  0  0  0
   11.1680   -0.1370   22.7480 C   0  0  0  0  0  0  0  0  0  0  0  0
   11.7690    0.9330   23.4400 C   0  0  0  0  0  0  0  0  0  0  0  0
   13.1210    1.2090   23.3200 C   0  0  0  0  0  0  0  0  0  0  0  0
   13.9060    0.4170   22.5030 C   0  0  0  0  0  0  0  0  0  0  0  0
   11.9850   -0.9410   21.9550 C   0  0  0  0  0  0  0  0  0  0  0  0
   13.3310   -0.6430   21.8350 C   0  0  0  0  0  0  0  0  0  0  0  0
   14.3080   -1.5890   20.7460 Cl  0  0  0  0  0  0  0  0  0  0  0  0
    9.4260   -1.9430   22.8870 C   0  0  0  0  0  0  0  0  0  0  0  0
    8.2950   -2.4070   23.7820 C   0  0  0  0  0  0  0  0  0  0  0  0
    7.2020   -1.8540   23.7680 O   0  0  0  0  0  0  0  0  0  0  0  0
    8.5070   -3.5040   24.5460 N   0  0  0  0  0  0  0  0  0  0  0  0
    7.3350   -4.2830   24.9800 C   0  0  2  0  0  0  0  0  0  0  0  0
    7.4790   -4.8230   26.4130 C   0  0  0  0  0  0  0  0  0  0  0  0
    8.8530   -5.4390   26.6580 C   0  0  0  0  0  0  0  0  0  0  0  0
    9.9580   -4.4590   26.3220 C   0  0  0  0  0  0  0  0  0  0  0  0
    9.8490   -4.0030   24.8820 C   0  0  0  0  0  0  0  0  0  0  0  0
    6.8460   -5.2850   23.9700 C   0  0  0  0  0  0  0  0  0  0  0  0
    7.4540   -5.6360   22.7970 C   0  0  0  0  0  0  0  0  0  0  0  0
    6.6260   -6.4600   22.1430 N   0  0  0  0  0  0  0  0  0  0  0  0
    5.4860   -6.6900   22.8320 N   0  0  0  0  0  0  0  0  0  0  0  0
    5.6290   -5.9810   23.9440 C   0  0  0  0  0  0  0  0  0  0  0  0
  2  1  2  0
  3  2  1  0
  4  3  1  0
  5  4  1  0
  6  5  2  0
  7  6  1  0
  8  7  2  0
  9  8  1  0
 10  9  2  0
 10  5  1  0
 11 10  1  0
 12 11  2  0
 13 12  1  0
 13  4  2  0
 14  2  1  0
 15 14  1  0
 16 15  1  0
 17 16  1  0
 18 14  1  0
 19 18  2  0
 19 17  1  0
 20 19  1  0
 21 20  2  0
 22 18  1  0
 23 22  2  0
 23 21  1  0
 24 23  1  0
 14 25  1  1
 26 25  1  0
 27 26  2  0
 28 26  1  0
 29 28  1  0
 30 29  1  0
 31 30  1  0
 32 31  1  0
 33 32  1  0
 33 28  1  0
 29 34  1  6
 35 34  1  0
 36 35  2  0
 37 36  1  0
 38 37  1  0
 38 34  2  0
M  END
