
     RDKit          3D

 24 27  0  0  0  0  0  0  0  0999 V2000
    9.2730    1.3790   21.2620 O   0  0  0  0  0  0  0  0  0  0  0  0
    8.8530    0.2810   21.6140 C   0  0  0  0  0  0  0  0  0  0  0  0
    9.3520   -0.4140   22.8820 C   0  0  2  0  0  0  0  0  0  0  0  0
    8.5520    0.2090   24.0610 C   0  0  0  0  0  0  0  0  0  0  0  0
    9.4490    0.6120   25.2040 C   0  0  0  0  0  0  0  0  0  0  0  0
   10.6020    1.3480   24.7670 O   0  0  0  0  0  0  0  0  0  0  0  0
   10.8580   -0.2420   22.9630 C   0  0  0  0  0  0  0  0  0  0  0  0
   11.3950    0.6250   23.9140 C   0  0  0  0  0  0  0  0  0  0  0  0
   12.7580    0.8610   23.9980 C   0  0  0  0  0  0  0  0  0  0  0  0
   13.6110    0.2520   23.0970 C   0  0  0  0  0  0  0  0  0  0  0  0
   11.7360   -0.8790   22.0880 C   0  0  0  0  0  0  0  0  0  0  0  0
   13.0910   -0.6120   22.1610 C   0  0  0  0  0  0  0  0  0  0  0  0
   14.1640   -1.3840   21.0350 Cl  0  0  0  0  0  0  0  0  0  0  0  0
    7.9320   -0.4040   20.9140 N   0  0  0  0  0  0  0  0  0  0  0  0
    6.8470   -0.0010   20.1070 C   0  0  0  0  0  0  0  0  0  0  0  0
    5.8540    0.9580   20.4080 C   0  0  0  0  0  0  0  0  0  0  0  0
    5.6780    1.4490   21.8250 C   0  0  0  0  0  0  0  0  0  0  0  0
    4.3800    2.0940   22.0520 N   0  0  0  0  0  0  0  0  0  0  0  0
    4.0480    3.0540   20.9840 C   0  0  0  0  0  0  0  0  0  0  0  0
    3.8860    2.3670   19.6470 C   0  0  0  0  0  0  0  0  0  0  0  0
    5.0510    1.4470   19.3670 C   0  0  0  0  0  0  0  0  0  0  0  0
    5.3320    1.0260   18.0810 C   0  0  0  0  0  0  0  0  0  0  0  0
    6.2980    0.1580   17.7670 N   0  0  0  0  0  0  0  0  0  0  0  0
    7.0030   -0.3670   18.7700 C   0  0  0  0  0  0  0  0  0  0  0  0
  2  1  2  0
  3  2  1  6
  4  3  1  0
  5  4  1  0
  6  5  1  0
  7  3  1  0
  8  7  2  0
  8  6  1  0
  9  8  1  0
 10  9  2  0
 11  7  1  0
 12 11  2  0
 12 10  1  0
 13 12  1  0
 14  2  1  0
 15 14  1  0
 16 15  1  0
 17 16  1  0
 18 17  1  0
 19 18  1  0
 20 19  1  0
 21 20  1  0
 21 16  2  0
 22 21  1  0
 23 22  2  0
 24 23  1  0
 24 15  2  0
M  END
