
     RDKit          3D

 31 34  0  0  0  0  0  0  0  0999 V2000
    3.6760    2.8700   25.4940 O   0  0  0  0  0  0  0  0  0  0  0  0
    4.4570    2.1510   24.5370 S   0  0  1  0  0  0  0  0  0  0  0  0
    5.8650    2.3930   24.4700 O   0  0  0  0  0  0  0  0  0  0  0  0
    4.2010    0.4350   24.7930 C   0  0  0  0  0  0  0  0  0  0  0  0
    3.8210    2.5040   23.0780 N   0  0  0  0  0  0  0  0  0  0  0  0
    4.3190    2.1290   21.7900 C   0  0  0  0  0  0  0  0  0  0  0  0
    3.6110    2.5510   20.6670 C   0  0  0  0  0  0  0  0  0  0  0  0
    3.9970    2.1910   19.4130 C   0  0  0  0  0  0  0  0  0  0  0  0
    5.4430    1.3450   21.6350 C   0  0  0  0  0  0  0  0  0  0  0  0
    5.8840    0.9460   20.3440 C   0  0  0  0  0  0  0  0  0  0  0  0
    5.1350    1.3790   19.2160 C   0  0  0  0  0  0  0  0  0  0  0  0
    5.5830    0.9780   17.9360 C   0  0  0  0  0  0  0  0  0  0  0  0
    6.6520    0.2270   17.7230 N   0  0  0  0  0  0  0  0  0  0  0  0
    7.3510   -0.1790   18.7920 C   0  0  0  0  0  0  0  0  0  0  0  0
    7.0420    0.1350   20.1160 C   0  0  0  0  0  0  0  0  0  0  0  0
    7.8160   -0.2710   21.2260 N   0  0  0  0  0  0  0  0  0  0  0  0
    8.9060    0.3410   21.7370 C   0  0  1  0  0  0  0  0  0  0  0  0
    9.3880    1.3510   21.2480 O   0  0  0  0  0  0  0  0  0  0  0  0
    9.4640   -0.2810   23.0720 C   0  0  1  0  0  0  0  0  0  0  0  0
    9.0400   -1.6490   23.0070 O   0  0  0  0  0  0  0  0  0  0  0  0
    9.5280   -2.5350   24.0220 C   0  0  0  0  0  0  0  0  0  0  0  0
   10.9670   -0.1420   23.1100 C   0  0  0  0  0  0  0  0  0  0  0  0
   11.7770   -0.7580   22.1490 C   0  0  0  0  0  0  0  0  0  0  0  0
   13.1440   -0.5800   22.2110 C   0  0  0  0  0  0  0  0  0  0  0  0
   14.1410   -1.3130   20.9790 Cl  0  0  0  0  0  0  0  0  0  0  0  0
   13.7490    0.1680   23.1940 C   0  0  0  0  0  0  0  0  0  0  0  0
   12.9590    0.7720   24.1610 C   0  0  0  0  0  0  0  0  0  0  0  0
   11.5880    0.6210   24.1030 C   0  0  0  0  0  0  0  0  0  0  0  0
   10.8750    1.3050   25.0610 O   0  0  0  0  0  0  0  0  0  0  0  0
    9.6320    0.6830   25.4200 C   0  0  0  0  0  0  0  0  0  0  0  0
    8.7390    0.4600   24.2150 C   0  0  0  0  0  0  0  0  0  0  0  0
  2  1  1  0
  3  2  1  0
  2  4  1  1
  5  2  1  0
  6  5  1  0
  7  6  1  0
  8  7  1  0
  9  6  1  0
 10  9  1  0
 11  8  1  0
 11 10  1  0
 12 11  1  0
 13 12  1  0
 14 13  1  0
 15 14  1  0
 15 10  1  0
 16 15  1  0
 17 16  1  0
 17 18  1  1
 19 17  1  0
 19 20  1  6
 21 20  1  0
 22 19  1  0
 23 22  1  0
 24 23  1  0
 25 24  1  0
 26 24  1  0
 27 26  1  0
 28 27  1  0
 28 22  1  0
 29 28  1  0
 30 29  1  0
 31 30  1  0
 31 19  1  0
M  END
$$$$
