
     RDKit          3D

 22 24  0  0  0  0  0  0  0  0999 V2000
    9.1690    1.0050   21.0850 O   0  0  0  0  0  0  0  0  0  0  0  0
    8.7590   -0.1370   21.2890 C   0  0  0  0  0  0  0  0  0  0  0  0
    9.3670   -1.0350   22.3490 C   0  0  0  0  0  0  0  0  0  0  0  0
   10.7570   -0.6350   22.7890 C   0  0  2  0  0  0  0  0  0  0  0  0
   10.9540    0.4050   23.6780 C   0  0  0  0  0  0  0  0  0  0  0  0
    9.8640    0.9490   24.2760 F   0  0  0  0  0  0  0  0  0  0  0  0
   12.1890    0.9480   23.9440 C   0  0  0  0  0  0  0  0  0  0  0  0
   13.2930    0.4610   23.2630 C   0  0  0  0  0  0  0  0  0  0  0  0
   11.8740   -1.1260   22.1160 C   0  0  0  0  0  0  0  0  0  0  0  0
   13.1040   -0.5600   22.3680 C   0  0  0  0  0  0  0  0  0  0  0  0
   14.1830   -1.0400   21.6900 F   0  0  0  0  0  0  0  0  0  0  0  0
    7.7320   -0.6970   20.6160 N   0  0  0  0  0  0  0  0  0  0  0  0
    6.8690   -0.0940   19.6800 C   0  0  1  0  0  0  0  0  0  0  0  0
    5.7310    0.6150   20.1740 C   0  0  0  0  0  0  0  0  0  0  0  0
    5.4230    0.7440   21.5550 C   0  0  0  0  0  0  0  0  0  0  0  0
    4.3620    1.4960   21.9690 C   0  0  0  0  0  0  0  0  0  0  0  0
    3.5490    2.1440   21.0440 C   0  0  0  0  0  0  0  0  0  0  0  0
    3.7940    2.0360   19.7020 C   0  0  0  0  0  0  0  0  0  0  0  0
    4.8920    1.2740   19.2320 C   0  0  1  0  0  0  0  0  0  0  0  0
    5.2410    1.1830   17.8600 C   0  0  0  0  0  0  0  0  0  0  0  0
    6.3010    0.5300   17.4040 N   0  0  0  0  0  0  0  0  0  0  0  0
    7.0790   -0.0920   18.3000 C   0  0  0  0  0  0  0  0  0  0  0  0
  2  1  1  0
  3  2  1  0
  4  3  1  6
  5  4  1  0
  6  5  1  0
  7  5  1  0
  8  7  1  0
  9  4  1  0
 10  9  1  0
 10  8  1  0
 11 10  1  0
 12  2  1  0
 13 12  1  1
 14 13  1  0
 15 14  1  0
 16 15  1  0
 17 16  1  0
 18 17  1  0
 19 18  1  1
 19 14  1  0
 20 19  1  0
 21 20  1  0
 22 21  1  0
 22 13  1  0
M  END
$$$$
