
     RDKit          3D

 30 33  0  0  0  0  0  0  0  0999 V2000
    8.9890    1.5580   21.1210 O   0  0  0  0  0  0  0  0  0  0  0  0
    8.8210    0.5050   21.7120 C   0  0  0  0  0  0  0  0  0  0  0  0
    8.1010   -0.6670   21.0380 C   0  0  0  0  0  0  0  0  0  0  0  0
    7.2310   -0.2110   19.9730 N   0  0  0  0  0  0  0  0  0  0  0  0
    6.0700    0.4980   20.0480 C   0  0  0  0  0  0  0  0  0  0  0  0
    5.2410    0.8730   21.0950 C   0  0  0  0  0  0  0  0  0  0  0  0
    4.1140    1.6210   20.7860 C   0  0  0  0  0  0  0  0  0  0  0  0
    3.8340    1.9880   19.4680 C   0  0  0  0  0  0  0  0  0  0  0  0
    4.6720    1.6070   18.4260 C   0  0  0  0  0  0  0  0  0  0  0  0
    5.7960    0.8420   18.7260 C   0  0  0  0  0  0  0  0  0  0  0  0
    6.7770    0.3080   17.9210 N   0  0  0  0  0  0  0  0  0  0  0  0
    7.6220   -0.3300   18.6790 N   0  0  0  0  0  0  0  0  0  0  0  0
    9.2460    0.3180   22.9960 N   0  0  0  0  0  0  0  0  0  0  0  0
    9.2250   -0.9400   23.6720 C   0  0  0  0  0  0  0  0  0  0  0  0
    8.2880   -1.1920   24.6710 C   0  0  0  0  0  0  0  0  0  0  0  0
    8.2620   -2.4190   25.3120 C   0  0  0  0  0  0  0  0  0  0  0  0
   10.1400   -1.9240   23.3310 C   0  0  0  0  0  0  0  0  0  0  0  0
   10.1130   -3.1520   23.9630 C   0  0  0  0  0  0  0  0  0  0  0  0
    9.1720   -3.4290   24.9640 C   0  0  0  0  0  0  0  0  0  0  0  0
    9.1410   -4.6620   25.5830 N   0  0  0  0  0  0  0  0  0  0  0  0
    9.7480   -5.8200   24.9530 C   0  0  0  0  0  0  0  0  0  0  0  0
    8.1560   -4.9730   26.6080 C   0  0  0  0  0  0  0  0  0  0  0  0
    9.7700    1.4750   23.7400 C   0  0  0  0  0  0  0  0  0  0  0  0
   11.2320    1.7480   23.4840 C   0  0  0  0  0  0  0  0  0  0  0  0
   11.6350    2.9040   22.8210 C   0  0  0  0  0  0  0  0  0  0  0  0
   12.9650    3.0620   22.4700 C   0  0  0  0  0  0  0  0  0  0  0  0
   13.4700    4.5370   21.6900 Cl  0  0  0  0  0  0  0  0  0  0  0  0
   13.9060    2.0950   22.7470 C   0  0  0  0  0  0  0  0  0  0  0  0
   13.5130    0.9630   23.4370 C   0  0  0  0  0  0  0  0  0  0  0  0
   12.1900    0.8000   23.8140 C   0  0  0  0  0  0  0  0  0  0  0  0
  2  1  2  0
  3  2  1  0
  4  3  1  0
  5  4  1  0
  6  5  2  0
  7  6  1  0
  8  7  2  0
  9  8  1  0
 10  9  2  0
 10  5  1  0
 11 10  1  0
 12 11  2  0
 12  4  1  0
 13  2  1  0
 14 13  1  0
 15 14  2  0
 16 15  1  0
 17 14  1  0
 18 17  2  0
 19 18  1  0
 19 16  2  0
 20 19  1  0
 21 20  1  0
 22 20  1  0
 23 13  1  0
 24 23  1  0
 25 24  2  0
 26 25  1  0
 27 26  1  0
 28 26  2  0
 29 28  1  0
 30 29  2  0
 30 24  1  0
M  END
