
     RDKit          3D

 34 38  0  0  0  0  0  0  0  0999 V2000
    9.4590    6.0420   23.1270 N   0  0  0  0  0  0  0  0  0  0  0  0
    8.4880    5.4490   23.1540 C   0  0  0  0  0  0  0  0  0  0  0  0
    7.2050    4.7250   23.1560 C   0  0  1  0  0  0  0  0  0  0  0  0
    6.1840    5.3280   24.1630 C   0  0  0  0  0  0  0  0  0  0  0  0
    5.5730    6.1520   23.0310 C   0  0  0  0  0  0  0  0  0  0  0  0
    6.2810    5.2480   22.0230 C   0  0  0  0  0  0  0  0  0  0  0  0
    7.4630    3.2210   23.1680 C   0  0  0  0  0  0  0  0  0  0  0  0
    7.7560    2.3800   24.7140 S   0  0  2  0  0  0  0  0  0  0  0  0
    6.5350    1.7760   25.1440 O   0  0  0  0  0  0  0  0  0  0  0  0
    8.4310    3.2840   25.5920 O   0  0  0  0  0  0  0  0  0  0  0  0
    8.7940    1.1720   24.3670 N   0  0  0  0  0  0  0  0  0  0  0  0
   10.1540    1.2100   24.9170 C   0  0  0  0  0  0  0  0  0  0  0  0
    8.3320   -0.1750   23.9900 C   0  0  0  0  0  0  0  0  0  0  0  0
    9.1430   -0.6120   22.7700 C   0  0  2  0  0  0  0  0  0  0  0  0
   10.6320   -0.3970   22.9940 C   0  0  0  0  0  0  0  0  0  0  0  0
   11.0980    0.4560   24.0090 C   0  0  0  0  0  0  0  0  0  0  0  0
   12.4720    0.6260   24.1740 C   0  0  0  0  0  0  0  0  0  0  0  0
   13.3760   -0.0120   23.3450 C   0  0  0  0  0  0  0  0  0  0  0  0
   11.5510   -1.0510   22.1730 C   0  0  0  0  0  0  0  0  0  0  0  0
   12.9030   -0.8360   22.3510 C   0  0  0  0  0  0  0  0  0  0  0  0
   14.0300   -1.5690   21.2450 Cl  0  0  0  0  0  0  0  0  0  0  0  0
    8.6610    0.1250   21.5190 C   0  0  0  0  0  0  0  0  0  0  0  0
    9.2010    1.1510   21.1190 O   0  0  0  0  0  0  0  0  0  0  0  0
    7.5530   -0.4030   20.9500 N   0  0  0  0  0  0  0  0  0  0  0  0
    6.7820    0.1140   19.8850 C   0  0  0  0  0  0  0  0  0  0  0  0
    5.6170    0.8840   20.1990 C   0  0  0  0  0  0  0  0  0  0  0  0
    5.1550    1.1140   21.5210 C   0  0  0  0  0  0  0  0  0  0  0  0
    4.0540    1.8870   21.7550 C   0  0  0  0  0  0  0  0  0  0  0  0
    3.3570    2.4670   20.7010 C   0  0  0  0  0  0  0  0  0  0  0  0
    3.7550    2.2670   19.4110 C   0  0  0  0  0  0  0  0  0  0  0  0
    4.8900    1.4680   19.1220 C   0  0  0  0  0  0  0  0  0  0  0  0
    5.3570    1.2310   17.8050 C   0  0  0  0  0  0  0  0  0  0  0  0
    6.4280    0.5070   17.5150 N   0  0  0  0  0  0  0  0  0  0  0  0
    7.1080   -0.0290   18.5360 C   0  0  0  0  0  0  0  0  0  0  0  0
  2  1  3  0
  3  2  1  6
  4  3  1  0
  5  4  1  0
  6  3  1  0
  6  5  1  0
  7  3  1  0
  8  7  1  6
  9  8  2  0
 10  8  2  0
 11  8  1  0
 12 11  1  0
 13 11  1  0
 14 13  1  0
 15 14  1  0
 16 15  2  0
 16 12  1  0
 17 16  1  0
 18 17  2  0
 19 15  1  0
 20 19  2  0
 20 18  1  0
 21 20  1  0
 14 22  1  6
 23 22  2  0
 24 22  1  0
 25 24  1  0
 26 25  1  0
 27 26  2  0
 28 27  1  0
 29 28  2  0
 30 29  1  0
 31 30  2  0
 31 26  1  0
 32 31  1  0
 33 32  2  0
 34 33  1  0
 34 25  2  0
M  END
> <BADATOMS>
8;7;9
> <BADCOMMENTS>
Weak Density;Weak Density;Weak Density
> <BADATOMNAMES>
[HET]1.O9;[HET]1.S8;[HET]1.O10