
     RDKit          3D

 31 35  0  0  0  0  0  0  0  0999 V2000
    8.6970    3.3780   25.7770 O   0  0  0  0  0  0  0  0  0  0  0  0
    7.9170    2.4210   25.0690 S   0  0  1  0  0  0  0  0  0  0  0  0
    6.8930    1.6800   25.7220 O   0  0  0  0  0  0  0  0  0  0  0  0
    7.2560    3.2300   23.8540 N   0  0  0  0  0  0  0  0  0  0  0  0
    7.7790    3.5500   22.4980 C   0  0  0  0  0  0  0  0  0  0  0  0
    6.6800    4.6120   22.3770 C   0  0  0  0  0  0  0  0  0  0  0  0
    6.0040    3.9950   23.6070 C   0  0  0  0  0  0  0  0  0  0  0  0
    8.9230    1.3660   24.4030 N   0  0  0  0  0  0  0  0  0  0  0  0
   10.3120    1.4100   24.8740 C   0  0  0  0  0  0  0  0  0  0  0  0
    8.4430    0.0010   24.1240 C   0  0  0  0  0  0  0  0  0  0  0  0
    9.2010   -0.5730   22.9240 C   0  0  2  0  0  0  0  0  0  0  0  0
   10.7020   -0.3560   23.0690 C   0  0  0  0  0  0  0  0  0  0  0  0
   11.2050    0.6160   23.9530 C   0  0  0  0  0  0  0  0  0  0  0  0
   12.5770    0.8640   23.9880 C   0  0  0  0  0  0  0  0  0  0  0  0
   13.4500    0.1710   23.1740 C   0  0  0  0  0  0  0  0  0  0  0  0
   11.5960   -1.0820   22.2760 C   0  0  0  0  0  0  0  0  0  0  0  0
   12.9520   -0.8000   22.3360 C   0  0  0  0  0  0  0  0  0  0  0  0
   14.0510   -1.6630   21.2940 Cl  0  0  0  0  0  0  0  0  0  0  0  0
    8.6920    0.0900   21.6410 C   0  0  0  0  0  0  0  0  0  0  0  0
    9.2690    1.0490   21.1300 O   0  0  0  0  0  0  0  0  0  0  0  0
    7.5230   -0.4110   21.1610 N   0  0  0  0  0  0  0  0  0  0  0  0
    6.7620    0.0780   20.0680 C   0  0  0  0  0  0  0  0  0  0  0  0
    5.5690    0.8270   20.3330 C   0  0  0  0  0  0  0  0  0  0  0  0
    5.0320    1.0240   21.6320 C   0  0  0  0  0  0  0  0  0  0  0  0
    3.8910    1.7560   21.8200 C   0  0  0  0  0  0  0  0  0  0  0  0
    3.2330    2.3330   20.7400 C   0  0  0  0  0  0  0  0  0  0  0  0
    3.7060    2.1670   19.4700 C   0  0  0  0  0  0  0  0  0  0  0  0
    4.8780    1.4050   19.2290 C   0  0  0  0  0  0  0  0  0  0  0  0
    5.4040    1.1860   17.9320 C   0  0  0  0  0  0  0  0  0  0  0  0
    6.5010    0.4860   17.6830 N   0  0  0  0  0  0  0  0  0  0  0  0
    7.1510   -0.0420   18.7310 C   0  0  0  0  0  0  0  0  0  0  0  0
  2  1  2  0
  3  2  2  0
  2  4  1  6
  5  4  1  0
  6  5  1  0
  7  6  1  0
  7  4  1  0
  8  2  1  0
  9  8  1  0
 10  8  1  0
 11 10  1  0
 12 11  1  0
 13 12  2  0
 13  9  1  0
 14 13  1  0
 15 14  2  0
 16 12  1  0
 17 16  2  0
 17 15  1  0
 18 17  1  0
 11 19  1  6
 20 19  2  0
 21 19  1  0
 22 21  1  0
 23 22  1  0
 24 23  2  0
 25 24  1  0
 26 25  2  0
 27 26  1  0
 28 27  2  0
 28 23  1  0
 29 28  1  0
 30 29  2  0
 31 30  1  0
 31 22  2  0
M  END
