
     RDKit          3D

 32 35  0  0  0  0  0  0  0  0999 V2000
   13.6340    7.9690   23.3290 O   0  0  0  0  0  0  0  0  0  0  0  0
   12.7540    7.4520   24.3290 S   0  0  2  0  0  0  0  0  0  0  0  0
   11.4210    7.9600   24.4030 O   0  0  0  0  0  0  0  0  0  0  0  0
   13.5090    7.6400   25.9290 C   0  0  0  0  0  0  0  0  0  0  0  0
   12.5550    8.2260   26.9430 C   0  0  0  0  0  0  0  0  0  0  0  0
   12.6400    5.8390   24.0840 N   0  0  0  0  0  0  0  0  0  0  0  0
   13.7140    5.0980   23.3960 C   0  0  0  0  0  0  0  0  0  0  0  0
   13.1090    3.8650   22.7120 C   0  0  0  0  0  0  0  0  0  0  0  0
   12.3690    3.0360   23.6750 N   0  0  0  0  0  0  0  0  0  0  0  0
   11.3380    3.7910   24.4030 C   0  0  0  0  0  0  0  0  0  0  0  0
   11.9400    5.0160   25.0910 C   0  0  0  0  0  0  0  0  0  0  0  0
   12.1280    1.6770   23.3360 C   0  0  0  0  0  0  0  0  0  0  0  0
   13.1860    0.8440   22.9500 C   0  0  0  0  0  0  0  0  0  0  0  0
   12.9100   -0.4370   22.5130 C   0  0  0  0  0  0  0  0  0  0  0  0
   14.1890   -1.3790   21.7980 Cl  0  0  0  0  0  0  0  0  0  0  0  0
   11.6280   -0.9390   22.4930 C   0  0  0  0  0  0  0  0  0  0  0  0
   10.5690   -0.1290   22.8750 C   0  0  0  0  0  0  0  0  0  0  0  0
   10.8220    1.1680   23.3150 C   0  0  0  0  0  0  0  0  0  0  0  0
    9.1470   -0.6080   22.6850 C   0  0  0  0  0  0  0  0  0  0  0  0
    8.5070    0.0730   21.4910 C   0  0  0  0  0  0  0  0  0  0  0  0
    8.9680    1.1100   21.0180 O   0  0  0  0  0  0  0  0  0  0  0  0
    7.4000   -0.5340   21.0090 N   0  0  0  0  0  0  0  0  0  0  0  0
    6.5970   -0.0990   19.9360 C   0  0  0  0  0  0  0  0  0  0  0  0
    5.4780    0.7440   20.2170 C   0  0  0  0  0  0  0  0  0  0  0  0
    4.9910    1.0020   21.5240 C   0  0  0  0  0  0  0  0  0  0  0  0
    3.9290    1.8340   21.7280 C   0  0  0  0  0  0  0  0  0  0  0  0
    3.2960    2.4470   20.6570 C   0  0  0  0  0  0  0  0  0  0  0  0
    3.7270    2.2300   19.3810 C   0  0  0  0  0  0  0  0  0  0  0  0
    4.8260    1.3740   19.1250 C   0  0  0  0  0  0  0  0  0  0  0  0
    5.3210    1.1180   17.8260 C   0  0  0  0  0  0  0  0  0  0  0  0
    6.3420    0.3170   17.5610 N   0  0  0  0  0  0  0  0  0  0  0  0
    6.9450   -0.2760   18.5980 C   0  0  0  0  0  0  0  0  0  0  0  0
  2  1  2  0
  3  2  2  0
  2  4  1  1
  5  4  1  0
  6  2  1  0
  7  6  1  0
  8  7  1  0
  9  8  1  0
 10  9  1  0
 11 10  1  0
 11  6  1  0
 12  9  1  0
 13 12  2  0
 14 13  1  0
 15 14  1  0
 16 14  2  0
 17 16  1  0
 18 17  2  0
 18 12  1  0
 19 17  1  0
 20 19  1  0
 21 20  2  0
 22 20  1  0
 23 22  1  0
 24 23  1  0
 25 24  2  0
 26 25  1  0
 27 26  2  0
 28 27  1  0
 29 28  2  0
 29 24  1  0
 30 29  1  0
 31 30  2  0
 32 31  1  0
 32 23  2  0
M  END
