
     RDKit          3D

 17 18  0  0  0  0  0  0  0  0999 V2000
   21.3450    7.5120   22.5380 N   0  0  0  0  0  0  0  0  0  0  0  0
   21.8690    6.4370   23.2350 C   0  0  0  0  0  0  0  0  0  0  0  0
   22.3360    2.0730   25.8810 O   0  0  0  0  0  0  0  0  0  0  0  0
   21.5170    6.2460   24.6050 C   0  0  0  0  0  0  0  0  0  0  0  0
   25.9430    5.6120   28.9540 C   0  0  0  0  0  0  0  0  0  0  0  0
   22.0380    5.1690   25.3160 C   0  0  0  0  0  0  0  0  0  0  0  0
   22.9080    4.2280   24.7330 C   0  0  0  0  0  0  0  0  0  0  0  0
   23.2490    4.4520   23.3640 C   0  0  0  0  0  0  0  0  0  0  0  0
   22.7570    5.5160   22.6190 C   0  0  0  0  0  0  0  0  0  0  0  0
   24.9720    4.3530   27.2530 C   0  0  0  0  0  0  0  0  0  0  0  0
   25.7390    4.9550   26.2520 C   0  0  0  0  0  0  0  0  0  0  0  0
   26.6300    5.9190   26.6740 C   0  0  0  0  0  0  0  0  0  0  0  0
   26.7480    6.2620   28.0190 C   0  0  0  0  0  0  0  0  0  0  0  0
   23.9820    3.4360   27.0340 N   0  0  0  0  0  0  0  0  0  0  0  0
   25.0650    4.6610   28.6120 N   0  0  0  0  0  0  0  0  0  0  0  0
   24.5320    2.3510   24.8040 O   0  0  0  0  0  0  0  0  0  0  0  0
   23.4550    2.8880   25.5340 S   0  0  1  0  0  0  0  0  0  0  0  0
  2  1  1  0
  4  2  2  0
  6  4  1  0
  7  6  2  0
  8  7  1  0
  9  8  2  0
  9  2  1  0
 11 10  1  0
 12 11  2  0
 13 12  1  0
 13  5  2  0
 14 10  1  0
 15 10  2  0
 15  5  1  0
 17 16  2  0
 17 14  1  1
 17  7  1  0
 17  3  2  0
M  END
