
     RDKit          3D

  8  7  0  0  0  0  0  0  0  0999 V2000
   24.1490   -2.0750   22.6700 C   0  0  1  0  0  0  0  0  0  0  0  0
   24.9060   -2.7990   21.5490 C   0  0  0  0  0  0  0  0  0  0  0  0
   23.9960   -2.9960   23.8910 C   0  0  0  0  0  0  0  0  0  0  0  0
   24.8630   -0.7640   23.0390 C   0  0  0  0  0  0  0  0  0  0  0  0
   22.7780   -1.7370   22.1600 N   0  0  0  0  0  0  0  0  0  0  0  0
   26.2110   -3.1900   21.9610 O   0  0  0  0  0  0  0  0  0  0  0  0
   23.1130   -2.4630   24.8660 O   0  0  0  0  0  0  0  0  0  0  0  0
   24.1120    0.0250   23.9530 O   0  0  0  0  0  0  0  0  0  0  0  0
  2  1  1  0
  3  1  1  0
  4  1  1  0
  1  5  1  6
  6  2  1  0
  7  3  1  0
  8  4  1  0
M  END
