
     RDKit          3D

 24 27  0  0  0  0  0  0  0  0999 V2000
   13.7440   -1.7610   21.4930 Cl  0  0  0  0  0  0  0  0  0  0  0  0
   12.4350   -1.0330   22.3710 C   0  0  0  0  0  0  0  0  0  0  0  0
   12.6780   -0.0860   23.3560 C   0  0  0  0  0  0  0  0  0  0  0  0
   14.2980    0.3320   23.8120 Cl  0  0  0  0  0  0  0  0  0  0  0  0
   11.1370   -1.3870   22.0530 C   0  0  0  0  0  0  0  0  0  0  0  0
   10.0580   -0.7970   22.7100 C   0  0  0  0  0  0  0  0  0  0  0  0
   10.3130    0.1570   23.7080 C   0  0  0  0  0  0  0  0  0  0  0  0
   11.6240    0.5160   24.0180 C   0  0  0  0  0  0  0  0  0  0  0  0
    8.6290   -1.1820   22.3820 C   0  0  1  0  0  0  0  0  0  0  0  0
    7.7740   -1.0770   23.6620 C   0  0  0  0  0  0  0  0  0  0  0  0
    7.8740    0.3190   24.2540 C   0  0  0  0  0  0  0  0  0  0  0  0
    9.2710    0.7160   24.4230 N   0  0  0  0  0  0  0  0  0  0  0  0
    8.1050   -0.2490   21.2890 C   0  0  0  0  0  0  0  0  0  0  0  0
    8.6640    0.8130   21.0060 O   0  0  0  0  0  0  0  0  0  0  0  0
    6.9810   -0.6880   20.6720 N   0  0  0  0  0  0  0  0  0  0  0  0
    6.3150   -0.0250   19.6170 C   0  0  0  0  0  0  0  0  0  0  0  0
    5.2680    0.8670   19.8880 C   0  0  0  0  0  0  0  0  0  0  0  0
    4.7420    1.1050   21.2950 C   0  0  2  0  0  0  0  0  0  0  0  0
    3.5690    2.0120   21.5550 C   0  0  0  0  0  0  0  0  0  0  0  0
    4.9300    2.4500   21.9450 C   0  0  0  0  0  0  0  0  0  0  0  0
    4.7190    1.5710   18.8210 C   0  0  0  0  0  0  0  0  0  0  0  0
    5.2140    1.3640   17.5510 C   0  0  0  0  0  0  0  0  0  0  0  0
    6.2020    0.5090   17.2710 N   0  0  0  0  0  0  0  0  0  0  0  0
    6.7340   -0.1680   18.2940 C   0  0  0  0  0  0  0  0  0  0  0  0
  2  1  1  0
  3  2  2  0
  4  3  1  0
  5  2  1  0
  6  5  2  0
  7  6  1  0
  8  7  2  0
  8  3  1  0
  9  6  1  0
 10  9  1  0
 11 10  1  0
 12 11  1  0
 12  7  1  0
  9 13  1  6
 14 13  2  0
 15 13  1  0
 16 15  1  0
 17 16  1  0
 18 17  1  6
 19 18  1  0
 20 19  1  0
 20 18  1  0
 21 17  2  0
 22 21  1  0
 23 22  2  0
 24 23  1  0
 24 16  2  0
M  END
