
     RDKit          3D

 30 33  0  0  0  0  0  0  0  0999 V2000
    8.6700    1.0140   21.0230 O   0  0  0  0  0  0  0  0  0  0  0  0
    8.5820   -0.1900   21.2530 C   0  0  0  0  0  0  0  0  0  0  0  0
    7.3990   -1.0110   20.7770 C   0  0  0  0  0  0  0  0  0  0  0  0
    6.6240   -0.2470   19.7240 C   0  0  0  0  0  0  0  0  0  0  0  0
    5.5360    0.5880   20.0880 C   0  0  0  0  0  0  0  0  0  0  0  0
    5.1060    0.7680   21.4280 C   0  0  0  0  0  0  0  0  0  0  0  0
    4.0670    1.5990   21.7270 C   0  0  0  0  0  0  0  0  0  0  0  0
    3.4020    2.2850   20.7250 C   0  0  0  0  0  0  0  0  0  0  0  0
    3.7780    2.1490   19.4210 C   0  0  0  0  0  0  0  0  0  0  0  0
    4.8550    1.3010   19.0680 C   0  0  0  0  0  0  0  0  0  0  0  0
    5.3140    1.1360   17.7410 C   0  0  0  0  0  0  0  0  0  0  0  0
    6.3370    0.3630   17.4040 N   0  0  0  0  0  0  0  0  0  0  0  0
    6.9570   -0.3070   18.3850 C   0  0  0  0  0  0  0  0  0  0  0  0
    9.5050   -0.8950   21.9390 N   0  0  0  0  0  0  0  0  0  0  0  0
   10.6760   -0.4020   22.5580 C   0  0  0  0  0  0  0  0  0  0  0  0
   11.7900   -1.2260   22.6770 C   0  0  0  0  0  0  0  0  0  0  0  0
   12.9230   -0.7280   23.2910 C   0  0  0  0  0  0  0  0  0  0  0  0
   14.2710   -1.7920   23.5540 Cl  0  0  0  0  0  0  0  0  0  0  0  0
   12.9950    0.5660   23.7630 C   0  0  0  0  0  0  0  0  0  0  0  0
   10.7170    0.9020   23.0400 C   0  0  0  0  0  0  0  0  0  0  0  0
   11.8740    1.3720   23.6350 C   0  0  0  0  0  0  0  0  0  0  0  0
   11.8460    2.6500   24.1880 O   0  0  0  0  0  0  0  0  0  0  0  0
   12.4830    3.7050   23.6030 C   0  0  0  0  0  0  0  0  0  0  0  0
   13.0690    3.4970   22.3530 C   0  0  0  0  0  0  0  0  0  0  0  0
   13.7310    4.5710   21.7800 C   0  0  0  0  0  0  0  0  0  0  0  0
   13.7810    5.7870   22.4380 C   0  0  0  0  0  0  0  0  0  0  0  0
   12.5120    4.8540   24.2700 N   0  0  0  0  0  0  0  0  0  0  0  0
   13.1470    5.8680   23.6830 C   0  0  0  0  0  0  0  0  0  0  0  0
   13.2110    7.0740   24.2900 O   0  0  0  0  0  0  0  0  0  0  0  0
   12.5920    7.2190   25.5790 C   0  0  0  0  0  0  0  0  0  0  0  0
  2  1  2  0
  3  2  1  0
  4  3  1  0
  5  4  1  0
  6  5  2  0
  7  6  1  0
  8  7  2  0
  9  8  1  0
 10  9  2  0
 10  5  1  0
 11 10  1  0
 12 11  2  0
 13 12  1  0
 13  4  2  0
 14  2  1  0
 15 14  1  0
 16 15  2  0
 17 16  1  0
 18 17  1  0
 19 17  2  0
 20 15  1  0
 21 20  2  0
 21 19  1  0
 22 21  1  0
 23 22  1  0
 24 23  2  0
 25 24  1  0
 26 25  2  0
 27 23  1  0
 28 27  2  0
 28 26  1  0
 29 28  1  0
 30 29  1  0
M  END
