
     RDKit          3D

 24 26  0  0  0  0  0  0  0  0999 V2000
   12.8720    6.6290   21.9460 O   0  0  0  0  0  0  0  0  0  0  0  0
   12.7380    5.5160   22.4350 C   0  0  0  0  0  0  0  0  0  0  0  0
   12.1400    4.1960   21.9810 C   0  0  0  0  0  0  0  0  0  0  0  0
   13.1740    4.9880   23.5940 N   0  0  0  0  0  0  0  0  0  0  0  0
   13.0080    3.5840   23.0830 C   0  0  1  0  0  0  0  0  0  0  0  0
   12.1610    2.7770   23.9120 O   0  0  0  0  0  0  0  0  0  0  0  0
   11.9860    1.5150   23.3940 C   0  0  0  0  0  0  0  0  0  0  0  0
   13.0260    0.6990   22.9710 C   0  0  0  0  0  0  0  0  0  0  0  0
   12.7090   -0.5350   22.4500 C   0  0  0  0  0  0  0  0  0  0  0  0
   13.9860   -1.5450   21.8440 Cl  0  0  0  0  0  0  0  0  0  0  0  0
   11.4030   -0.9750   22.3550 C   0  0  0  0  0  0  0  0  0  0  0  0
   10.6670    1.1030   23.3070 C   0  0  0  0  0  0  0  0  0  0  0  0
   10.3680   -0.1450   22.7750 C   0  0  0  0  0  0  0  0  0  0  0  0
    8.9300   -0.5730   22.6080 C   0  0  0  0  0  0  0  0  0  0  0  0
    8.2680    0.1330   21.4390 C   0  0  0  0  0  0  0  0  0  0  0  0
    8.6720    1.2150   21.0160 O   0  0  0  0  0  0  0  0  0  0  0  0
    7.2080   -0.5190   20.9180 N   0  0  0  0  0  0  0  0  0  0  0  0
    6.4300   -0.0210   19.8470 C   0  0  0  0  0  0  0  0  0  0  0  0
    5.2740    0.7380   20.1150 C   0  0  0  0  0  0  0  0  0  0  0  0
    4.7710    0.9580   21.5210 C   0  0  0  0  0  0  0  0  0  0  0  0
    6.8490   -0.1590   18.5230 C   0  0  0  0  0  0  0  0  0  0  0  0
    6.2240    0.4200   17.4890 N   0  0  0  0  0  0  0  0  0  0  0  0
    5.1300    1.1390   17.7560 C   0  0  0  0  0  0  0  0  0  0  0  0
    4.6220    1.3130   19.0290 C   0  0  0  0  0  0  0  0  0  0  0  0
  2  1  2  0
  3  2  1  0
  4  2  1  0
  5  4  1  0
  5  3  1  0
  5  6  1  1
  7  6  1  0
  8  7  2  0
  9  8  1  0
 10  9  1  0
 11  9  2  0
 12  7  1  0
 13 12  2  0
 13 11  1  0
 14 13  1  0
 15 14  1  0
 16 15  2  0
 17 15  1  0
 18 17  1  0
 19 18  2  0
 20 19  1  0
 21 18  1  0
 22 21  2  0
 23 22  1  0
 24 23  2  0
 24 19  1  0
M  END
