
     RDKit          3D

 24 27  0  0  0  0  0  0  0  0999 V2000
    9.4210    1.2350   21.1300 O   0  0  0  0  0  0  0  0  0  0  0  0
    8.9980    0.2460   21.7060 C   0  0  1  0  0  0  0  0  0  0  0  0
    9.6970   -0.2890   22.9520 C   0  0  2  0  0  0  0  0  0  0  0  0
   11.2020   -0.0700   22.8980 C   0  0  0  0  0  0  0  0  0  0  0  0
   11.8100    0.8960   23.6910 C   0  0  0  0  0  0  0  0  0  0  0  0
   13.1670    1.1570   23.5740 C   0  0  0  0  0  0  0  0  0  0  0  0
   13.9400    0.4510   22.6630 C   0  0  0  0  0  0  0  0  0  0  0  0
   11.9850   -0.8110   22.0170 C   0  0  0  0  0  0  0  0  0  0  0  0
   13.3350   -0.5350   21.9060 C   0  0  0  0  0  0  0  0  0  0  0  0
   14.2960   -1.4500   20.7750 Cl  0  0  0  0  0  0  0  0  0  0  0  0
    7.8450   -0.3820   21.3050 N   0  0  0  0  0  0  0  0  0  0  0  0
    7.3980   -1.7170   21.7490 C   0  0  0  0  0  0  0  0  0  0  0  0
    7.8820   -2.0160   23.1530 C   0  0  0  0  0  0  0  0  0  0  0  0
    9.3790   -1.7560   23.2580 C   0  0  0  0  0  0  0  0  0  0  0  0
    7.0950    0.1360   20.2010 C   0  0  0  0  0  0  0  0  0  0  0  0
    5.9600    0.9770   20.3820 C   0  0  0  0  0  0  0  0  0  0  0  0
    5.4560    1.3690   21.6520 C   0  0  0  0  0  0  0  0  0  0  0  0
    4.3410    2.1520   21.7550 C   0  0  0  0  0  0  0  0  0  0  0  0
    3.6820    2.5980   20.6160 C   0  0  0  0  0  0  0  0  0  0  0  0
    4.1350    2.2600   19.3710 C   0  0  0  0  0  0  0  0  0  0  0  0
    5.2780    1.4370   19.2190 C   0  0  0  0  0  0  0  0  0  0  0  0
    5.7790    1.0320   17.9550 C   0  0  0  0  0  0  0  0  0  0  0  0
    6.8390    0.2480   17.7920 N   0  0  0  0  0  0  0  0  0  0  0  0
    7.4680   -0.1810   18.8970 C   0  0  0  0  0  0  0  0  0  0  0  0
  2  1  1  1
  3  2  1  0
  3  4  1  6
  5  4  1  0
  6  5  1  0
  7  6  1  0
  8  4  1  0
  9  8  1  0
  9  7  1  0
 10  9  1  0
 11  2  1  0
 12 11  1  0
 13 12  1  0
 14 13  1  0
 14  3  1  0
 15 11  1  0
 16 15  1  0
 17 16  1  0
 18 17  1  0
 19 18  1  0
 20 19  1  0
 21 20  1  0
 21 16  1  0
 22 21  1  0
 23 22  1  0
 24 23  1  0
 24 15  1  0
M  END
$$$$
