
     RDKit          3D

 20 22  0  0  0  0  0  0  0  0999 V2000
    8.9180    0.9060   21.4990 O   0  0  0  0  0  0  0  0  0  0  0  0
    8.5660   -0.2330   21.8100 C   0  0  0  0  0  0  0  0  0  0  0  0
    9.2030   -0.9750   22.9710 C   0  0  0  0  0  0  0  0  0  0  0  0
   10.6580   -0.6110   23.1600 C   0  0  0  0  0  0  0  0  0  0  0  0
   11.0310    0.3940   24.0450 C   0  0  0  0  0  0  0  0  0  0  0  0
   12.3520    0.8090   24.1330 C   0  0  0  0  0  0  0  0  0  0  0  0
   13.3210    0.2330   23.3280 C   0  0  0  0  0  0  0  0  0  0  0  0
   11.6400   -1.2220   22.3870 C   0  0  0  0  0  0  0  0  0  0  0  0
   12.9490   -0.7890   22.4750 C   0  0  0  0  0  0  0  0  0  0  0  0
   14.1610   -1.5620   21.4910 Cl  0  0  0  0  0  0  0  0  0  0  0  0
    7.5950   -0.9090   21.1700 N   0  0  0  0  0  0  0  0  0  0  0  0
    6.9160   -0.3690   20.0880 N   0  0  0  0  0  0  0  0  0  0  0  0
    5.8310    0.4340   20.1760 C   0  0  0  0  0  0  0  0  0  0  0  0
    5.6410    0.8440   18.8560 C   0  0  0  0  0  0  0  0  0  0  0  0
    6.6200    0.2720   18.0640 N   0  0  0  0  0  0  0  0  0  0  0  0
    7.3940   -0.4660   18.8150 N   0  0  0  0  0  0  0  0  0  0  0  0
    5.0080    0.8790   21.2040 C   0  0  0  0  0  0  0  0  0  0  0  0
    3.9830    1.7620   20.8850 C   0  0  0  0  0  0  0  0  0  0  0  0
    3.7800    2.1760   19.5670 C   0  0  0  0  0  0  0  0  0  0  0  0
    4.5980    1.7150   18.5420 C   0  0  0  0  0  0  0  0  0  0  0  0
  2  1  2  0
  3  2  1  0
  4  3  1  0
  5  4  2  0
  6  5  1  0
  7  6  2  0
  8  4  1  0
  9  8  2  0
  9  7  1  0
 10  9  1  0
 11  2  1  0
 12 11  1  0
 13 12  1  0
 14 13  2  0
 15 14  1  0
 16 15  2  0
 16 12  1  0
 17 13  1  0
 18 17  2  0
 19 18  1  0
 20 19  2  0
 20 14  1  0
M  END
