
     RDKit          3D

 28 31  0  0  0  0  0  0  0  0999 V2000
   14.0630   -1.3740   21.2070 Cl  0  0  0  0  0  0  0  0  0  0  0  0
   13.0130   -0.4670   22.2600 C   0  0  0  0  0  0  0  0  0  0  0  0
   13.5620    0.4600   23.1120 C   0  0  0  0  0  0  0  0  0  0  0  0
   12.7430    1.1230   24.0060 C   0  0  0  0  0  0  0  0  0  0  0  0
   11.3800    0.8700   24.0050 C   0  0  0  0  0  0  0  0  0  0  0  0
   10.6530    1.5300   24.9640 O   0  0  0  0  0  0  0  0  0  0  0  0
    9.3860    0.9300   25.2790 C   0  0  0  0  0  0  0  0  0  0  0  0
    8.5520    0.7310   24.0420 C   0  0  0  0  0  0  0  0  0  0  0  0
   11.6520   -0.7190   22.2350 C   0  0  0  0  0  0  0  0  0  0  0  0
   10.8040   -0.0250   23.0970 C   0  0  0  0  0  0  0  0  0  0  0  0
    9.2930   -0.1680   23.0400 C   0  0  2  0  0  0  0  0  0  0  0  0
    8.7290    0.0540   21.6380 C   0  0  0  0  0  0  0  0  0  0  0  0
    9.0380    1.0330   20.9840 O   0  0  0  0  0  0  0  0  0  0  0  0
    7.7510   -0.8590   21.1290 N   0  0  0  0  0  0  0  0  0  0  0  0
    7.5590   -2.1910   21.5970 C   0  0  0  0  0  0  0  0  0  0  0  0
    8.4060   -2.7420   22.2860 O   0  0  0  0  0  0  0  0  0  0  0  0
    6.3170   -2.9360   21.1570 C   0  0  0  0  0  0  0  0  0  0  0  0
    6.6310   -4.0190   20.1190 C   0  0  0  0  0  0  0  0  0  0  0  0
    6.9040   -0.3910   20.0470 C   0  0  0  0  0  0  0  0  0  0  0  0
    7.3150   -0.4740   18.7210 C   0  0  0  0  0  0  0  0  0  0  0  0
    6.7100    0.1410   17.6940 N   0  0  0  0  0  0  0  0  0  0  0  0
    5.6490    0.8900   17.9650 C   0  0  0  0  0  0  0  0  0  0  0  0
    5.1210    1.0800   19.2670 C   0  0  0  0  0  0  0  0  0  0  0  0
    5.7670    0.4160   20.3500 C   0  0  0  0  0  0  0  0  0  0  0  0
    3.9940    1.8960   19.5330 C   0  0  0  0  0  0  0  0  0  0  0  0
    3.5320    2.0460   20.8090 C   0  0  0  0  0  0  0  0  0  0  0  0
    4.1470    1.3920   21.8660 C   0  0  0  0  0  0  0  0  0  0  0  0
    5.2380    0.5980   21.6540 C   0  0  0  0  0  0  0  0  0  0  0  0
  2  1  1  0
  3  2  2  0
  4  3  1  0
  5  4  2  0
  6  5  1  0
  7  6  1  0
  8  7  1  0
  9  2  1  0
 10  9  2  0
 10  5  1  0
 11 10  1  0
 11  8  1  0
 11 12  1  6
 13 12  2  0
 14 12  1  0
 15 14  1  0
 16 15  2  0
 17 15  1  0
 18 17  1  0
 19 14  1  0
 20 19  2  0
 21 20  1  0
 22 21  2  0
 23 22  1  0
 24 23  2  0
 24 19  1  0
 25 23  1  0
 26 25  2  0
 27 26  1  0
 28 27  2  0
 28 24  1  0
M  END
