
     RDKit          3D

 30 33  0  0  0  0  0  0  0  0999 V2000
   13.9130   -1.6080   21.3130 Cl  0  0  0  0  0  0  0  0  0  0  0  0
   12.7790   -0.7780   22.3390 C   0  0  0  0  0  0  0  0  0  0  0  0
   11.4340   -1.0800   22.2390 C   0  0  0  0  0  0  0  0  0  0  0  0
   13.2430    0.1640   23.2260 C   0  0  0  0  0  0  0  0  0  0  0  0
   12.3450    0.7940   24.0650 C   0  0  0  0  0  0  0  0  0  0  0  0
   10.9820    0.5050   24.0080 C   0  0  0  0  0  0  0  0  0  0  0  0
   10.0660    1.1360   25.0290 C   0  0  0  0  0  0  0  0  0  0  0  0
    8.6710    1.0660   24.5810 N   0  0  0  0  0  0  0  0  0  0  0  0
    7.5670    2.0420   25.2010 S   0  0  1  0  0  0  0  0  0  0  0  0
    6.3150    1.7480   24.5950 O   0  0  0  0  0  0  0  0  0  0  0  0
    7.7180    2.0400   26.6150 O   0  0  0  0  0  0  0  0  0  0  0  0
    8.1000    3.4380   24.6320 N   0  0  0  0  0  0  0  0  0  0  0  0
    7.5940    3.9010   23.3350 C   0  0  0  0  0  0  0  0  0  0  0  0
    8.4090    4.5010   25.5960 C   0  0  0  0  0  0  0  0  0  0  0  0
   10.5160   -0.4240   23.0600 C   0  0  0  0  0  0  0  0  0  0  0  0
    9.0280   -0.6820   22.8930 C   0  0  1  0  0  0  0  0  0  0  0  0
    8.2530   -0.2800   24.1500 C   0  0  0  0  0  0  0  0  0  0  0  0
    8.4980    0.0820   21.6790 C   0  0  0  0  0  0  0  0  0  0  0  0
    9.0210    1.1260   21.2820 O   0  0  0  0  0  0  0  0  0  0  0  0
    7.4000   -0.4710   21.1020 N   0  0  0  0  0  0  0  0  0  0  0  0
    6.6740    0.0070   19.9860 C   0  0  0  0  0  0  0  0  0  0  0  0
    5.5220    0.8270   20.2110 C   0  0  0  0  0  0  0  0  0  0  0  0
    4.9900    1.1040   21.4970 C   0  0  0  0  0  0  0  0  0  0  0  0
    3.8980    1.9100   21.6460 C   0  0  0  0  0  0  0  0  0  0  0  0
    3.2880    2.4920   20.5390 C   0  0  0  0  0  0  0  0  0  0  0  0
    3.7590    2.2500   19.2800 C   0  0  0  0  0  0  0  0  0  0  0  0
    4.8790    1.4060   19.0780 C   0  0  0  0  0  0  0  0  0  0  0  0
    5.3950    1.0980   17.7960 C   0  0  0  0  0  0  0  0  0  0  0  0
    6.4450    0.3150   17.5860 N   0  0  0  0  0  0  0  0  0  0  0  0
    7.0590   -0.2010   18.6600 C   0  0  0  0  0  0  0  0  0  0  0  0
  2  1  1  0
  3  2  2  0
  4  2  1  0
  5  4  2  0
  6  5  1  0
  7  6  1  0
  8  7  1  0
  9  8  1  0
 10  9  2  0
 11  9  2  0
  9 12  1  6
 13 12  1  0
 14 12  1  0
 15  6  2  0
 15  3  1  0
 16 15  1  0
 17 16  1  0
 17  8  1  0
 16 18  1  6
 19 18  2  0
 20 18  1  0
 21 20  1  0
 22 21  1  0
 23 22  2  0
 24 23  1  0
 25 24  2  0
 26 25  1  0
 27 26  2  0
 27 22  1  0
 28 27  1  0
 29 28  2  0
 30 29  1  0
 30 21  2  0
M  END
