
     RDKit          3D

 27 29  0  0  0  0  0  0  0  0999 V2000
   13.6090   -1.8010   22.5540 Cl  0  0  0  0  0  0  0  0  0  0  0  0
   12.2950   -0.7780   23.0230 C   0  0  0  0  0  0  0  0  0  0  0  0
   12.5280    0.3930   23.7290 C   0  0  0  0  0  0  0  0  0  0  0  0
   14.1380    0.8680   24.1660 Cl  0  0  0  0  0  0  0  0  0  0  0  0
   11.4630    1.1930   24.1060 C   0  0  0  0  0  0  0  0  0  0  0  0
   10.1720    0.8160   23.7840 C   0  0  0  0  0  0  0  0  0  0  0  0
   11.0000   -1.1480   22.6980 C   0  0  0  0  0  0  0  0  0  0  0  0
    9.9230   -0.3550   23.0820 C   0  0  0  0  0  0  0  0  0  0  0  0
    8.5020   -0.7800   22.7870 C   0  0  2  0  0  0  0  0  0  0  0  0
    8.4700   -2.1640   22.4390 O   0  0  0  0  0  0  0  0  0  0  0  0
    7.6670   -2.9520   23.3230 C   0  0  0  0  0  0  0  0  0  0  0  0
    7.3040   -4.2500   22.6740 C   0  0  0  0  0  0  0  0  0  0  0  0
    6.2750   -4.9050   23.3900 O   0  0  0  0  0  0  0  0  0  0  0  0
    5.7710   -6.0470   22.7000 C   0  0  0  0  0  0  0  0  0  0  0  0
    7.8610    0.1040   21.7150 C   0  0  0  0  0  0  0  0  0  0  0  0
    7.8680    1.3250   21.8440 O   0  0  0  0  0  0  0  0  0  0  0  0
    7.3890   -0.5400   20.6220 N   0  0  0  0  0  0  0  0  0  0  0  0
    6.4200   -0.1560   19.6650 C   0  0  0  0  0  0  0  0  0  0  0  0
    5.3510    0.7440   19.9940 C   0  0  0  0  0  0  0  0  0  0  0  0
    4.8120    0.8880   21.3020 C   0  0  0  0  0  0  0  0  0  0  0  0
    3.7060    1.6580   21.5290 C   0  0  0  0  0  0  0  0  0  0  0  0
    3.0800    2.3240   20.4870 C   0  0  0  0  0  0  0  0  0  0  0  0
    3.5490    2.2120   19.2090 C   0  0  0  0  0  0  0  0  0  0  0  0
    4.6830    1.4110   18.9240 C   0  0  0  0  0  0  0  0  0  0  0  0
    5.1120    1.1350   17.6060 C   0  0  0  0  0  0  0  0  0  0  0  0
    6.0570    0.2650   17.3000 N   0  0  0  0  0  0  0  0  0  0  0  0
    6.6690   -0.3620   18.3100 C   0  0  0  0  0  0  0  0  0  0  0  0
  2  1  1  0
  3  2  2  0
  4  3  1  0
  5  3  1  0
  6  5  2  0
  7  2  1  0
  8  6  1  0
  8  7  2  0
  9  8  1  0
  9 10  1  6
 11 10  1  0
 12 11  1  0
 13 12  1  0
 14 13  1  0
 15  9  1  0
 16 15  2  0
 17 15  1  0
 18 17  1  0
 19 18  1  0
 20 19  2  0
 21 20  1  0
 22 21  2  0
 23 22  1  0
 24 23  2  0
 24 19  1  0
 25 24  1  0
 26 25  2  0
 27 26  1  0
 27 18  2  0
M  END
