
     RDKit          3D

 23 25  0  0  0  0  0  0  0  0999 V2000
   13.7570   -1.7520   21.6170 Cl  0  0  0  0  0  0  0  0  0  0  0  0
   12.4860   -0.8590   22.3930 C   0  0  0  0  0  0  0  0  0  0  0  0
   12.7730    0.1560   23.2960 C   0  0  0  0  0  0  0  0  0  0  0  0
   14.4010    0.6890   23.5510 Cl  0  0  0  0  0  0  0  0  0  0  0  0
   11.7440    0.8220   23.9340 C   0  0  0  0  0  0  0  0  0  0  0  0
   10.4320    0.4910   23.6520 C   0  0  0  0  0  0  0  0  0  0  0  0
   11.1720   -1.1760   22.1030 C   0  0  0  0  0  0  0  0  0  0  0  0
   10.1280   -0.5020   22.7300 C   0  0  0  0  0  0  0  0  0  0  0  0
    8.6860   -0.9040   22.4450 C   0  0  2  0  0  0  0  0  0  0  0  0
    8.5340   -2.4360   22.5020 C   0  0  0  0  0  0  0  0  0  0  0  0
    8.1860   -0.0810   21.2470 C   0  0  0  0  0  0  0  0  0  0  0  0
    8.7180    0.9840   20.9320 O   0  0  0  0  0  0  0  0  0  0  0  0
    7.0690   -0.5540   20.6280 N   0  0  0  0  0  0  0  0  0  0  0  0
    6.3250    0.0510   19.5980 C   0  0  0  0  0  0  0  0  0  0  0  0
    5.2620    0.9360   19.9580 C   0  0  0  0  0  0  0  0  0  0  0  0
    4.8710    1.1980   21.2980 C   0  0  0  0  0  0  0  0  0  0  0  0
    3.8710    2.0860   21.5770 C   0  0  0  0  0  0  0  0  0  0  0  0
    3.2120    2.7550   20.5520 C   0  0  0  0  0  0  0  0  0  0  0  0
    3.5470    2.5310   19.2480 C   0  0  0  0  0  0  0  0  0  0  0  0
    4.5810    1.6180   18.9140 C   0  0  0  0  0  0  0  0  0  0  0  0
    5.0010    1.3680   17.5840 C   0  0  0  0  0  0  0  0  0  0  0  0
    5.9870    0.5440   17.2540 N   0  0  0  0  0  0  0  0  0  0  0  0
    6.6200   -0.0930   18.2450 C   0  0  0  0  0  0  0  0  0  0  0  0
  2  1  1  0
  3  2  2  0
  4  3  1  0
  5  3  1  0
  6  5  2  0
  7  2  1  0
  8  6  1  0
  8  7  2  0
  9  8  1  0
  9 10  1  6
 11  9  1  0
 12 11  2  0
 13 11  1  0
 14 13  1  0
 15 14  1  0
 16 15  2  0
 17 16  1  0
 18 17  2  0
 19 18  1  0
 20 19  2  0
 20 15  1  0
 21 20  1  0
 22 21  2  0
 23 22  1  0
 23 14  2  0
M  END
