
     RDKit          3D

 21 23  0  0  0  0  0  0  0  0999 V2000
    9.2460    0.7810   21.0870 O   0  0  0  0  0  0  0  0  0  0  0  0
    8.8390   -0.3660   21.2580 C   0  0  0  0  0  0  0  0  0  0  0  0
    9.6260   -1.3820   22.0630 C   0  0  0  0  0  0  0  0  0  0  0  0
   10.9580   -0.8620   22.5530 C   0  0  0  0  0  0  0  0  0  0  0  0
   12.1520   -1.2170   21.9360 C   0  0  0  0  0  0  0  0  0  0  0  0
   13.3280   -0.6270   22.3710 C   0  0  0  0  0  0  0  0  0  0  0  0
   13.2980    0.2780   23.4190 C   0  0  0  0  0  0  0  0  0  0  0  0
   10.9090   -0.0070   23.5890 N   0  0  0  0  0  0  0  0  0  0  0  0
   12.0610    0.5150   23.9920 C   0  0  0  0  0  0  0  0  0  0  0  0
   11.9710    1.5010   25.4210 Cl  0  0  0  0  0  0  0  0  0  0  0  0
    7.6760   -0.8320   20.7560 N   0  0  0  0  0  0  0  0  0  0  0  0
    6.8200   -0.2110   19.8240 C   0  0  0  0  0  0  0  0  0  0  0  0
    5.6930    0.5250   20.3030 C   0  0  0  0  0  0  0  0  0  0  0  0
    5.3530    0.6470   21.6770 C   0  0  0  0  0  0  0  0  0  0  0  0
    4.2740    1.3860   22.0700 C   0  0  0  0  0  0  0  0  0  0  0  0
    3.4820    2.0380   21.1340 C   0  0  0  0  0  0  0  0  0  0  0  0
    3.7640    1.9470   19.8000 C   0  0  0  0  0  0  0  0  0  0  0  0
    4.8740    1.1920   19.3480 C   0  0  0  0  0  0  0  0  0  0  0  0
    5.2320    1.0820   17.9830 C   0  0  0  0  0  0  0  0  0  0  0  0
    6.2810    0.3990   17.5400 N   0  0  0  0  0  0  0  0  0  0  0  0
    7.0390   -0.2290   18.4480 C   0  0  0  0  0  0  0  0  0  0  0  0
  2  1  2  0
  3  2  1  0
  4  3  1  0
  5  4  2  0
  6  5  1  0
  7  6  2  0
  8  4  1  0
  9  8  2  0
  9  7  1  0
 10  9  1  0
 11  2  1  0
 12 11  1  0
 13 12  1  0
 14 13  2  0
 15 14  1  0
 16 15  2  0
 17 16  1  0
 18 17  2  0
 18 13  1  0
 19 18  1  0
 20 19  2  0
 21 20  1  0
 21 12  2  0
M  END
