
     RDKit          3D

 27 30  0  0  0  0  0  0  0  0999 V2000
   14.1460   -1.5160   21.1230 Cl  0  0  0  0  0  0  0  0  0  0  0  0
   12.9910   -0.8020   22.2180 C   0  0  0  0  0  0  0  0  0  0  0  0
   11.6640   -1.1670   22.1210 C   0  0  0  0  0  0  0  0  0  0  0  0
   13.4150    0.1440   23.1260 C   0  0  0  0  0  0  0  0  0  0  0  0
   12.4890    0.7360   23.9690 C   0  0  0  0  0  0  0  0  0  0  0  0
   11.1390    0.3940   23.8820 C   0  0  0  0  0  0  0  0  0  0  0  0
   10.1720    1.0080   24.7320 N   0  0  0  0  0  0  0  0  0  0  0  0
   10.5820    1.8060   25.7500 C   0  0  0  0  0  0  0  0  0  0  0  0
   10.6250    1.3340   26.8990 O   0  0  0  0  0  0  0  0  0  0  0  0
   10.8750    3.0780   25.4500 N   0  0  0  0  0  0  0  0  0  0  0  0
   10.7130   -0.5550   22.9370 C   0  0  0  0  0  0  0  0  0  0  0  0
    9.2460   -0.8750   22.7390 C   0  0  1  0  0  0  0  0  0  0  0  0
    8.4370   -0.5850   24.0060 C   0  0  0  0  0  0  0  0  0  0  0  0
    8.7310    0.8210   24.4930 C   0  0  0  0  0  0  0  0  0  0  0  0
    8.6950   -0.0750   21.5580 C   0  0  0  0  0  0  0  0  0  0  0  0
    9.2100    0.9830   21.1850 O   0  0  0  0  0  0  0  0  0  0  0  0
    7.6040   -0.6220   20.9720 N   0  0  0  0  0  0  0  0  0  0  0  0
    6.8460   -0.0930   19.9100 C   0  0  0  0  0  0  0  0  0  0  0  0
    5.7280    0.7390   20.2230 C   0  0  0  0  0  0  0  0  0  0  0  0
    5.2700    0.9820   21.5440 C   0  0  0  0  0  0  0  0  0  0  0  0
    4.2020    1.8030   21.7790 C   0  0  0  0  0  0  0  0  0  0  0  0
    3.5430    2.4250   20.7270 C   0  0  0  0  0  0  0  0  0  0  0  0
    3.9400    2.2160   19.4380 C   0  0  0  0  0  0  0  0  0  0  0  0
    5.0330    1.3630   19.1480 C   0  0  0  0  0  0  0  0  0  0  0  0
    5.4770    1.0880   17.8310 C   0  0  0  0  0  0  0  0  0  0  0  0
    6.5050    0.3030   17.5380 N   0  0  0  0  0  0  0  0  0  0  0  0
    7.1650   -0.2620   18.5630 C   0  0  0  0  0  0  0  0  0  0  0  0
  2  1  1  0
  3  2  2  0
  4  2  1  0
  5  4  2  0
  6  5  1  0
  7  6  1  0
  8  7  1  0
  9  8  2  0
 10  8  1  0
 11  6  2  0
 11  3  1  0
 12 11  1  0
 13 12  1  0
 14 13  1  0
 14  7  1  0
 12 15  1  6
 16 15  2  0
 17 15  1  0
 18 17  1  0
 19 18  1  0
 20 19  2  0
 21 20  1  0
 22 21  2  0
 23 22  1  0
 24 23  2  0
 24 19  1  0
 25 24  1  0
 26 25  2  0
 27 26  1  0
 27 18  2  0
M  END
