
     RDKit          3D

 22 24  0  0  0  0  0  0  0  0999 V2000
   13.7960   -1.7400   22.0140 Cl  0  0  0  0  0  0  0  0  0  0  0  0
   12.4330   -1.0260   22.8080 C   0  0  0  0  0  0  0  0  0  0  0  0
   12.6180    0.0010   23.7080 C   0  0  0  0  0  0  0  0  0  0  0  0
   13.8650    0.4790   23.9150 F   0  0  0  0  0  0  0  0  0  0  0  0
   11.1550   -1.4800   22.5410 C   0  0  0  0  0  0  0  0  0  0  0  0
   10.0560   -0.8910   23.1630 C   0  0  0  0  0  0  0  0  0  0  0  0
   10.2800    0.1170   24.0930 C   0  0  0  0  0  0  0  0  0  0  0  0
   11.5580    0.5700   24.3700 C   0  0  0  0  0  0  0  0  0  0  0  0
    8.6510   -1.2260   22.7110 C   0  0  0  0  0  0  0  0  0  0  0  0
    8.3130   -0.3640   21.5110 C   0  0  0  0  0  0  0  0  0  0  0  0
    9.1940    0.0870   20.7930 O   0  0  0  0  0  0  0  0  0  0  0  0
    7.0110   -0.0540   21.3510 N   0  0  0  0  0  0  0  0  0  0  0  0
    6.3320    0.2860   20.1590 C   0  0  0  0  0  0  0  0  0  0  0  0
    5.0000    0.7870   20.2730 C   0  0  0  0  0  0  0  0  0  0  0  0
    4.3250    0.9460   21.5100 C   0  0  0  0  0  0  0  0  0  0  0  0
    3.1230    1.5900   21.5770 C   0  0  0  0  0  0  0  0  0  0  0  0
    2.5340    2.1080   20.4330 C   0  0  0  0  0  0  0  0  0  0  0  0
    3.1290    1.9550   19.2130 C   0  0  0  0  0  0  0  0  0  0  0  0
    4.3650    1.2730   19.0950 C   0  0  0  0  0  0  0  0  0  0  0  0
    5.0540    1.1270   17.8660 C   0  0  0  0  0  0  0  0  0  0  0  0
    6.2600    0.5930   17.7480 N   0  0  0  0  0  0  0  0  0  0  0  0
    6.8730    0.2020   18.8730 C   0  0  0  0  0  0  0  0  0  0  0  0
  2  1  1  0
  3  2  2  0
  4  3  1  0
  5  2  1  0
  6  5  2  0
  7  6  1  0
  8  7  2  0
  8  3  1  0
  9  6  1  0
 10  9  1  0
 11 10  2  0
 12 10  1  0
 13 12  1  0
 14 13  1  0
 15 14  2  0
 16 15  1  0
 17 16  2  0
 18 17  1  0
 19 18  2  0
 19 14  1  0
 20 19  1  0
 21 20  2  0
 22 21  1  0
 22 13  2  0
M  END
> <BADATOMS>
6;7;2;3;0;1;4;5;8;10;9;11;12;13;14;15;16;17;18;19;20;21
> <BADCOMMENTS>
Weak Density;Weak Density;Weak Density;Weak Density;Weak Density;Weak Density;Weak Density;Weak Density;Weak Density;Weak Density;Weak Density;Weak Density;Weak Density;Weak Density;Weak Density;Weak Density;Weak Density;Weak Density;Weak Density;Weak Density;Weak Density;Weak Density
> <BADATOMNAMES>
[HET]1.C7;[HET]1.C8;[HET]1.C3;[HET]1.F4;[HET]1.CL1;[HET]1.C2;[HET]1.C5;[HET]1.C6;[HET]1.C9;[HET]1.O11;[HET]1.C10;[HET]1.N12;[HET]1.C13;[HET]1.C14;[HET]1.C15;[HET]1.C16;[HET]1.C17;[HET]1.C18;[HET]1.C19;[HET]1.C20;[HET]1.N21;[HET]1.C22