
     RDKit          3D

 24 27  0  0  0  0  0  0  0  0999 V2000
    8.6990    0.9130   21.0750 O   0  0  0  0  0  0  0  0  0  0  0  0
    8.1160   -0.0040   21.6320 C   0  0  0  0  0  0  0  0  0  0  0  0
    8.6250   -0.5630   22.9590 C   0  0  2  0  0  0  0  0  0  0  0  0
   10.1380   -0.4920   23.0480 C   0  0  0  0  0  0  0  0  0  0  0  0
   10.9340   -1.1230   22.1000 C   0  0  0  0  0  0  0  0  0  0  0  0
   12.3140   -1.0850   22.1850 C   0  0  0  0  0  0  0  0  0  0  0  0
   10.7580    0.1720   24.0980 C   0  0  0  0  0  0  0  0  0  0  0  0
   12.1370    0.2240   24.1970 C   0  0  0  0  0  0  0  0  0  0  0  0
   12.9000   -0.4030   23.2340 C   0  0  0  0  0  0  0  0  0  0  0  0
   14.6350   -0.3080   23.3240 Cl  0  0  0  0  0  0  0  0  0  0  0  0
    6.9570   -0.5350   21.1360 N   0  0  0  0  0  0  0  0  0  0  0  0
    6.4330   -1.8700   21.4720 C   0  0  0  0  0  0  0  0  0  0  0  0
    6.6870   -2.1750   22.9360 C   0  0  0  0  0  0  0  0  0  0  0  0
    8.1640   -2.0030   23.2610 C   0  0  0  0  0  0  0  0  0  0  0  0
    6.3350    0.0130   19.9720 C   0  0  0  0  0  0  0  0  0  0  0  0
    5.2190    0.8810   20.1410 C   0  0  0  0  0  0  0  0  0  0  0  0
    4.6670    1.2290   21.4000 C   0  0  0  0  0  0  0  0  0  0  0  0
    3.6030    2.0790   21.4910 C   0  0  0  0  0  0  0  0  0  0  0  0
    3.0340    2.6250   20.3490 C   0  0  0  0  0  0  0  0  0  0  0  0
    3.5270    2.3240   19.1130 C   0  0  0  0  0  0  0  0  0  0  0  0
    4.6260    1.4430   18.9720 C   0  0  0  0  0  0  0  0  0  0  0  0
    5.1770    1.0870   17.7170 C   0  0  0  0  0  0  0  0  0  0  0  0
    6.2050    0.2610   17.5650 N   0  0  0  0  0  0  0  0  0  0  0  0
    6.7570   -0.2510   18.6740 C   0  0  0  0  0  0  0  0  0  0  0  0
  2  1  2  0
  3  2  1  0
  3  4  1  6
  5  4  2  0
  6  5  1  0
  7  4  1  0
  8  7  2  0
  9  8  1  0
  9  6  2  0
 10  9  1  0
 11  2  1  0
 12 11  1  0
 13 12  1  0
 14 13  1  0
 14  3  1  0
 15 11  1  0
 16 15  1  0
 17 16  2  0
 18 17  1  0
 19 18  2  0
 20 19  1  0
 21 20  2  0
 21 16  1  0
 22 21  1  0
 23 22  2  0
 24 23  1  0
 24 15  2  0
M  END
> <BADATOMS>
13;12;11;5
> <BADCOMMENTS>
Weak Density;Weak Density;Weak Density;Weak Density
> <BADATOMNAMES>
[HET]1.C14;[HET]1.C13;[HET]1.C12;[HET]1.C6