
     RDKit          3D

 33 37  0  0  0  0  0  0  0  0999 V2000
   13.9840   -1.4820   21.4280 Cl  0  0  0  0  0  0  0  0  0  0  0  0
   12.7550   -0.8360   22.4770 C   0  0  0  0  0  0  0  0  0  0  0  0
   11.4270   -1.0890   22.1920 C   0  0  0  0  0  0  0  0  0  0  0  0
   13.1270   -0.0870   23.5670 C   0  0  0  0  0  0  0  0  0  0  0  0
   12.1450    0.4040   24.4060 C   0  0  0  0  0  0  0  0  0  0  0  0
   10.7950    0.1520   24.1670 C   0  0  0  0  0  0  0  0  0  0  0  0
    9.8010    0.5880   25.2220 C   0  0  0  0  0  0  0  0  0  0  0  0
    8.4110    0.5390   24.7480 N   0  0  0  0  0  0  0  0  0  0  0  0
    7.2160    1.5110   25.1970 S   0  0  2  0  0  0  0  0  0  0  0  0
    7.2580    1.6240   26.6150 O   0  0  0  0  0  0  0  0  0  0  0  0
    6.0300    1.0910   24.5330 O   0  0  0  0  0  0  0  0  0  0  0  0
    7.6560    2.9230   24.5860 N   0  0  0  0  0  0  0  0  0  0  0  0
    7.5850    4.1740   25.3710 C   0  0  0  0  0  0  0  0  0  0  0  0
    7.0650    5.2280   24.3970 C   0  0  0  0  0  0  0  0  0  0  0  0
    7.5060    3.2370   23.1510 C   0  0  0  0  0  0  0  0  0  0  0  0
    6.5640    4.4310   23.1750 C   0  0  2  0  0  0  0  0  0  0  0  0
    6.6250    5.2640   21.9040 C   0  0  0  0  0  0  0  0  0  0  0  0
   10.4310   -0.5840   23.0280 C   0  0  0  0  0  0  0  0  0  0  0  0
    8.9740   -0.8240   22.6840 C   0  0  1  0  0  0  0  0  0  0  0  0
    8.0780   -0.6250   23.9060 C   0  0  0  0  0  0  0  0  0  0  0  0
    8.5220   -0.0330   21.4530 C   0  0  0  0  0  0  0  0  0  0  0  0
    9.0790    1.0050   21.1020 O   0  0  0  0  0  0  0  0  0  0  0  0
    7.4190   -0.5280   20.8470 N   0  0  0  0  0  0  0  0  0  0  0  0
    6.6380    0.0590   19.8260 C   0  0  0  0  0  0  0  0  0  0  0  0
    5.4600    0.7820   20.2000 C   0  0  0  0  0  0  0  0  0  0  0  0
    5.0280    0.9460   21.5440 C   0  0  0  0  0  0  0  0  0  0  0  0
    3.9220    1.6920   21.8390 C   0  0  0  0  0  0  0  0  0  0  0  0
    3.1890    2.3060   20.8280 C   0  0  0  0  0  0  0  0  0  0  0  0
    3.5550    2.1650   19.5200 C   0  0  0  0  0  0  0  0  0  0  0  0
    4.6970    1.4010   19.1700 C   0  0  0  0  0  0  0  0  0  0  0  0
    5.1470    1.2500   17.8350 C   0  0  0  0  0  0  0  0  0  0  0  0
    6.2340    0.5800   17.4880 N   0  0  0  0  0  0  0  0  0  0  0  0
    6.9480    0.0070   18.4670 C   0  0  0  0  0  0  0  0  0  0  0  0
  2  1  1  0
  3  2  2  0
  4  2  1  0
  5  4  2  0
  6  5  1  0
  7  6  1  0
  8  7  1  0
  9  8  1  6
 10  9  2  0
 11  9  2  0
 12  9  1  0
 13 12  1  0
 14 13  1  0
 15 12  1  0
 16 15  1  0
 16 14  1  0
 16 17  1  6
 18  6  2  0
 18  3  1  0
 19 18  1  0
 20 19  1  0
 20  8  1  0
 19 21  1  6
 22 21  2  0
 23 21  1  0
 24 23  1  0
 25 24  1  0
 26 25  2  0
 27 26  1  0
 28 27  2  0
 29 28  1  0
 30 29  2  0
 30 25  1  0
 31 30  1  0
 32 31  2  0
 33 32  1  0
 33 24  2  0
M  END
> <BADATOMS>
8;9;10;29;28;27;26;25
> <BADCOMMENTS>
Weak Density;Weak Density;Weak Density;Weak Density;Weak Density;Weak Density;Weak Density;Weak Density
> <BADATOMNAMES>
[HET]1.S9;[HET]1.O10;[HET]1.O11;[HET]1.C30;[HET]1.C29;[HET]1.C28;[HET]1.C27;[HET]1.C26