
     RDKit          3D

 24 26  0  0  0  0  0  0  0  0999 V2000
   13.5540   -1.6160   21.8770 Cl  0  0  0  0  0  0  0  0  0  0  0  0
   12.2750   -0.7550   22.6710 C   0  0  0  0  0  0  0  0  0  0  0  0
   12.5450    0.3460   23.4770 C   0  0  0  0  0  0  0  0  0  0  0  0
   14.1660    0.9310   23.6850 Cl  0  0  0  0  0  0  0  0  0  0  0  0
   11.5120    0.9810   24.1440 C   0  0  0  0  0  0  0  0  0  0  0  0
   10.2150    0.5250   23.9950 C   0  0  0  0  0  0  0  0  0  0  0  0
   10.9730   -1.1980   22.5170 C   0  0  0  0  0  0  0  0  0  0  0  0
    9.9260   -0.5500   23.1660 C   0  0  2  0  0  0  0  0  0  0  0  0
    8.4860   -0.9340   22.8580 C   0  0  2  0  0  0  0  0  0  0  0  0
    8.3670   -2.3900   22.6310 N   0  0  0  0  0  0  0  0  0  0  0  0
    7.6250   -3.0680   23.6920 C   0  0  0  0  0  0  0  0  0  0  0  0
    8.0140   -0.0990   21.6430 C   0  0  0  0  0  0  0  0  0  0  0  0
    8.5620    0.9610   21.3440 O   0  0  0  0  0  0  0  0  0  0  0  0
    6.9640   -0.6240   20.9700 N   0  0  0  0  0  0  0  0  0  0  0  0
    6.2940   -0.0710   19.8610 C   0  0  1  0  0  0  0  0  0  0  0  0
    5.1560    0.7590   20.1000 C   0  0  0  0  0  0  0  0  0  0  0  0
    4.6150    1.0060   21.3890 C   0  0  0  0  0  0  0  0  0  0  0  0
    3.5400    1.8310   21.5530 C   0  0  0  0  0  0  0  0  0  0  0  0
    2.9480    2.4480   20.4590 C   0  0  0  0  0  0  0  0  0  0  0  0
    3.4280    2.2420   19.1980 C   0  0  0  0  0  0  0  0  0  0  0  0
    4.5440    1.3930   18.9830 C   0  0  0  0  0  0  0  0  0  0  0  0
    5.0990    1.1520   17.7030 C   0  0  0  0  0  0  0  0  0  0  0  0
    6.1490    0.3740   17.4810 N   0  0  0  0  0  0  0  0  0  0  0  0
    6.7180   -0.2160   18.5410 C   0  0  0  0  0  0  0  0  0  0  0  0
  2  1  1  0
  3  2  1  0
  4  3  1  0
  5  3  1  0
  6  5  1  0
  7  2  1  0
  8  6  1  6
  8  7  1  0
  9  8  1  0
  9 10  1  6
 11 10  1  0
 12  9  1  0
 13 12  1  0
 14 12  1  0
 15 14  1  1
 16 15  1  0
 17 16  1  0
 18 17  1  0
 19 18  1  0
 20 19  1  0
 21 20  1  0
 21 16  1  0
 22 21  1  0
 23 22  1  0
 24 23  1  0
 24 15  1  0
M  END
$$$$
