
     RDKit          3D

 20 22  0  0  0  0  0  0  0  0999 V2000
    8.9270    0.9580   21.3030 O   0  0  0  0  0  0  0  0  0  0  0  0
    8.5640   -0.1740   21.6100 C   0  0  0  0  0  0  0  0  0  0  0  0
    9.0770   -0.8820   22.8500 C   0  0  0  0  0  0  0  0  0  0  0  0
   10.5540   -0.6320   23.0410 C   0  0  0  0  0  0  0  0  0  0  0  0
   11.0010    0.3620   23.9020 C   0  0  0  0  0  0  0  0  0  0  0  0
   12.3350    0.7400   23.9190 C   0  0  0  0  0  0  0  0  0  0  0  0
   13.2500    0.1080   23.0900 C   0  0  0  0  0  0  0  0  0  0  0  0
   11.4810   -1.2940   22.2420 C   0  0  0  0  0  0  0  0  0  0  0  0
   12.8090   -0.9170   22.2800 C   0  0  0  0  0  0  0  0  0  0  0  0
   13.9540   -1.7640   21.2760 Cl  0  0  0  0  0  0  0  0  0  0  0  0
    7.6980   -0.9030   20.8480 N   0  0  0  0  0  0  0  0  0  0  0  0
    7.1140   -0.4030   19.6880 C   0  0  0  0  0  0  0  0  0  0  0  0
    6.0540    0.4730   19.7460 N   0  0  0  0  0  0  0  0  0  0  0  0
    5.7680    0.8160   18.4280 C   0  0  0  0  0  0  0  0  0  0  0  0
    6.5930    0.1930   17.5850 N   0  0  0  0  0  0  0  0  0  0  0  0
    7.4120   -0.5600   18.3760 C   0  0  0  0  0  0  0  0  0  0  0  0
    5.3370    0.9850   20.8120 C   0  0  0  0  0  0  0  0  0  0  0  0
    4.3230    1.8460   20.5770 C   0  0  0  0  0  0  0  0  0  0  0  0
    4.0040    2.2220   19.2480 C   0  0  0  0  0  0  0  0  0  0  0  0
    4.7060    1.7180   18.1910 C   0  0  0  0  0  0  0  0  0  0  0  0
  2  1  2  0
  3  2  1  0
  4  3  1  0
  5  4  2  0
  6  5  1  0
  7  6  2  0
  8  4  1  0
  9  8  2  0
  9  7  1  0
 10  9  1  0
 11  2  1  0
 12 11  1  0
 13 12  1  0
 14 13  1  0
 15 14  2  0
 16 15  1  0
 16 12  2  0
 17 13  1  0
 18 17  2  0
 19 18  1  0
 20 19  2  0
 20 14  1  0
M  END
