
     RDKit          3D

 25 28  0  0  0  0  0  0  0  0999 V2000
   14.1120   -1.5740   21.3470 Cl  0  0  0  0  0  0  0  0  0  0  0  0
   12.8800   -0.7890   22.2930 C   0  0  0  0  0  0  0  0  0  0  0  0
   11.5590   -1.1150   22.0700 C   0  0  0  0  0  0  0  0  0  0  0  0
   13.2450    0.1710   23.2100 C   0  0  0  0  0  0  0  0  0  0  0  0
   12.2610    0.8360   23.9200 C   0  0  0  0  0  0  0  0  0  0  0  0
   10.9180    0.5270   23.7130 C   0  0  0  0  0  0  0  0  0  0  0  0
    9.9090    1.1380   24.4590 N   0  0  0  0  0  0  0  0  0  0  0  0
   10.1750    2.3890   25.1590 C   0  0  0  0  0  0  0  0  0  0  0  0
   10.5570   -0.4480   22.7730 C   0  0  0  0  0  0  0  0  0  0  0  0
    9.0960   -0.7700   22.5220 C   0  0  1  0  0  0  0  0  0  0  0  0
    8.3500   -0.7160   23.8750 C   0  0  0  0  0  0  0  0  0  0  0  0
    8.5450    0.6300   24.5820 C   0  0  0  0  0  0  0  0  0  0  0  0
    8.4660    0.1320   21.4560 C   0  0  0  0  0  0  0  0  0  0  0  0
    8.7130    1.3340   21.3900 O   0  0  0  0  0  0  0  0  0  0  0  0
    7.7200   -0.5210   20.5340 N   0  0  0  0  0  0  0  0  0  0  0  0
    6.6780   -0.0700   19.6860 C   0  0  0  0  0  0  0  0  0  0  0  0
    5.7530    0.9590   20.0820 C   0  0  0  0  0  0  0  0  0  0  0  0
    5.4580    1.2820   21.4340 C   0  0  0  0  0  0  0  0  0  0  0  0
    4.4780    2.1830   21.7480 C   0  0  0  0  0  0  0  0  0  0  0  0
    3.7460    2.8100   20.7480 C   0  0  0  0  0  0  0  0  0  0  0  0
    3.9900    2.5370   19.4330 C   0  0  0  0  0  0  0  0  0  0  0  0
    4.9880    1.6000   19.0630 C   0  0  0  0  0  0  0  0  0  0  0  0
    5.1990    1.1960   17.7260 C   0  0  0  0  0  0  0  0  0  0  0  0
    6.0330    0.2390   17.3610 N   0  0  0  0  0  0  0  0  0  0  0  0
    6.7230   -0.3790   18.3270 C   0  0  0  0  0  0  0  0  0  0  0  0
  2  1  1  0
  3  2  2  0
  4  2  1  0
  5  4  2  0
  6  5  1  0
  7  6  1  0
  8  7  1  0
  9  6  2  0
  9  3  1  0
 10  9  1  0
 11 10  1  0
 12 11  1  0
 12  7  1  0
 10 13  1  6
 14 13  2  0
 15 13  1  0
 16 15  1  0
 17 16  1  0
 18 17  2  0
 19 18  1  0
 20 19  2  0
 21 20  1  0
 22 21  2  0
 22 17  1  0
 23 22  1  0
 24 23  2  0
 25 24  1  0
 25 16  2  0
M  END
> <BADATOMS>
9;10;11;6;7;8;5;2;4;1;3;0;15;20;19;18;17
> <BADCOMMENTS>
Weak Density;Weak Density;Weak Density;Weak Density;Weak Density;Weak Density;Weak Density;Weak Density;Weak Density;Weak Density;Weak Density;Weak Density;Weak Density;Weak Density;Weak Density;Weak Density;Weak Density
> <BADATOMNAMES>
[HET]1.C10;[HET]1.C11;[HET]1.C12;[HET]1.N7;[HET]1.C8;[HET]1.C9;[HET]1.C6;[HET]1.C3;[HET]1.C5;[HET]1.C2;[HET]1.C4;[HET]1.CL1;[HET]1.C16;[HET]1.C21;[HET]1.C20;[HET]1.C19;[HET]1.C18