
     RDKit          3D

 34 38  0  0  0  0  0  0  0  0999 V2000
    6.1820    1.0870   24.9560 O   0  0  0  0  0  0  0  0  0  0  0  0
    7.4170    1.7980   24.8370 S   0  0  2  0  0  0  0  0  0  0  0  0
    7.8610    2.6090   25.9260 O   0  0  0  0  0  0  0  0  0  0  0  0
    7.3570    2.8210   23.3790 C   0  0  0  0  0  0  0  0  0  0  0  0
    6.8020    4.2410   23.5160 C   0  0  2  0  0  0  0  0  0  0  0  0
    5.3050    4.2280   23.8460 C   0  0  0  0  0  0  0  0  0  0  0  0
    4.7360    5.6270   23.8390 C   0  0  0  0  0  0  0  0  0  0  0  0
    4.9850    6.2880   22.5870 O   0  0  0  0  0  0  0  0  0  0  0  0
    6.3940    6.4150   22.3560 C   0  0  0  0  0  0  0  0  0  0  0  0
    7.0570    5.0610   22.2520 C   0  0  0  0  0  0  0  0  0  0  0  0
    8.5790    0.6990   24.5470 N   0  0  0  0  0  0  0  0  0  0  0  0
    9.9530    0.9680   24.9890 C   0  0  0  0  0  0  0  0  0  0  0  0
    8.3020   -0.6960   24.1590 C   0  0  0  0  0  0  0  0  0  0  0  0
    9.0930   -0.9490   22.8740 C   0  0  2  0  0  0  0  0  0  0  0  0
   10.5610   -0.6140   23.0770 C   0  0  0  0  0  0  0  0  0  0  0  0
   10.9460    0.3320   24.0430 C   0  0  0  0  0  0  0  0  0  0  0  0
   12.2860    0.7060   24.1320 C   0  0  0  0  0  0  0  0  0  0  0  0
   13.2370    0.1630   23.2880 C   0  0  0  0  0  0  0  0  0  0  0  0
   11.5340   -1.1910   22.2580 C   0  0  0  0  0  0  0  0  0  0  0  0
   12.8520   -0.7920   22.3770 C   0  0  0  0  0  0  0  0  0  0  0  0
   14.0600   -1.5360   21.3640 Cl  0  0  0  0  0  0  0  0  0  0  0  0
    8.5130   -0.1280   21.7170 C   0  0  0  0  0  0  0  0  0  0  0  0
    9.0640    0.8920   21.2950 O   0  0  0  0  0  0  0  0  0  0  0  0
    7.3640   -0.6250   21.1880 N   0  0  0  0  0  0  0  0  0  0  0  0
    6.6470   -0.1330   20.0720 C   0  0  0  0  0  0  0  0  0  0  0  0
    5.5000    0.6990   20.2900 C   0  0  0  0  0  0  0  0  0  0  0  0
    4.9200    0.9270   21.5650 C   0  0  0  0  0  0  0  0  0  0  0  0
    3.8290    1.7370   21.7060 C   0  0  0  0  0  0  0  0  0  0  0  0
    3.2640    2.3640   20.6030 C   0  0  0  0  0  0  0  0  0  0  0  0
    3.7780    2.1670   19.3530 C   0  0  0  0  0  0  0  0  0  0  0  0
    4.8990    1.3220   19.1580 C   0  0  0  0  0  0  0  0  0  0  0  0
    5.4500    1.0470   17.8830 C   0  0  0  0  0  0  0  0  0  0  0  0
    6.4920    0.2520   17.6770 N   0  0  0  0  0  0  0  0  0  0  0  0
    7.0630   -0.3110   18.7520 C   0  0  0  0  0  0  0  0  0  0  0  0
  2  1  2  0
  3  2  2  0
  2  4  1  6
  5  4  1  6
  6  5  1  0
  7  6  1  0
  8  7  1  0
  9  8  1  0
 10  5  1  0
 10  9  1  0
 11  2  1  0
 12 11  1  0
 13 11  1  0
 14 13  1  0
 15 14  1  0
 16 15  2  0
 16 12  1  0
 17 16  1  0
 18 17  2  0
 19 15  1  0
 20 19  2  0
 20 18  1  0
 21 20  1  0
 14 22  1  6
 23 22  2  0
 24 22  1  0
 25 24  1  0
 26 25  1  0
 27 26  2  0
 28 27  1  0
 29 28  2  0
 30 29  1  0
 31 30  2  0
 31 26  1  0
 32 31  1  0
 33 32  2  0
 34 33  1  0
 34 25  2  0
M  END
