
     RDKit          3D

 34 38  0  0  0  0  0  0  0  0999 V2000
    9.1040    6.0080   23.1830 N   0  0  0  0  0  0  0  0  0  0  0  0
    8.2040    5.3100   23.1480 C   0  0  0  0  0  0  0  0  0  0  0  0
    7.0290    4.4350   23.0420 C   0  0  2  0  0  0  0  0  0  0  0  0
    6.2110    4.8890   21.8030 C   0  0  0  0  0  0  0  0  0  0  0  0
    5.3210    5.7270   22.7160 C   0  0  0  0  0  0  0  0  0  0  0  0
    5.8320    4.9150   23.9080 C   0  0  0  0  0  0  0  0  0  0  0  0
    7.4610    2.9740   23.1360 C   0  0  0  0  0  0  0  0  0  0  0  0
    7.5610    2.1440   24.7130 S   0  0  2  0  0  0  0  0  0  0  0  0
    6.3150    1.4910   24.9670 O   0  0  0  0  0  0  0  0  0  0  0  0
    8.0670    3.0720   25.6750 O   0  0  0  0  0  0  0  0  0  0  0  0
    8.6800    0.9800   24.5300 N   0  0  0  0  0  0  0  0  0  0  0  0
   10.0730    1.2510   24.9060 C   0  0  0  0  0  0  0  0  0  0  0  0
    8.3730   -0.4230   24.2000 C   0  0  0  0  0  0  0  0  0  0  0  0
    9.1450   -0.7980   22.9340 C   0  0  2  0  0  0  0  0  0  0  0  0
   10.6170   -0.4550   23.0830 C   0  0  0  0  0  0  0  0  0  0  0  0
   11.0240    0.5810   23.9400 C   0  0  0  0  0  0  0  0  0  0  0  0
   12.3600    0.9790   23.9370 C   0  0  0  0  0  0  0  0  0  0  0  0
   13.2890    0.3560   23.1260 C   0  0  0  0  0  0  0  0  0  0  0  0
   11.5680   -1.1090   22.2990 C   0  0  0  0  0  0  0  0  0  0  0  0
   12.8850   -0.6930   22.3330 C   0  0  0  0  0  0  0  0  0  0  0  0
   14.0650   -1.5290   21.3620 Cl  0  0  0  0  0  0  0  0  0  0  0  0
    8.5880   -0.0600   21.7140 C   0  0  0  0  0  0  0  0  0  0  0  0
    9.1450    0.9310   21.2380 O   0  0  0  0  0  0  0  0  0  0  0  0
    7.4360   -0.5740   21.2130 N   0  0  0  0  0  0  0  0  0  0  0  0
    6.7000   -0.1030   20.1010 C   0  0  0  0  0  0  0  0  0  0  0  0
    5.5340    0.6990   20.3310 C   0  0  0  0  0  0  0  0  0  0  0  0
    4.9630    0.9150   21.6120 C   0  0  0  0  0  0  0  0  0  0  0  0
    3.8650    1.7130   21.7670 C   0  0  0  0  0  0  0  0  0  0  0  0
    3.2870    2.3430   20.6720 C   0  0  0  0  0  0  0  0  0  0  0  0
    3.7880    2.1520   19.4160 C   0  0  0  0  0  0  0  0  0  0  0  0
    4.9140    1.3170   19.2080 C   0  0  0  0  0  0  0  0  0  0  0  0
    5.4580    1.0540   17.9260 C   0  0  0  0  0  0  0  0  0  0  0  0
    6.5140    0.2810   17.7090 N   0  0  0  0  0  0  0  0  0  0  0  0
    7.1140   -0.2670   18.7770 C   0  0  0  0  0  0  0  0  0  0  0  0
  2  1  3  0
  3  2  1  1
  4  3  1  0
  5  4  1  0
  6  5  1  0
  6  3  1  0
  7  3  1  0
  8  7  1  6
  9  8  2  0
 10  8  2  0
 11  8  1  0
 12 11  1  0
 13 11  1  0
 14 13  1  0
 15 14  1  0
 16 15  2  0
 16 12  1  0
 17 16  1  0
 18 17  2  0
 19 15  1  0
 20 19  2  0
 20 18  1  0
 21 20  1  0
 14 22  1  6
 23 22  2  0
 24 22  1  0
 25 24  1  0
 26 25  1  0
 27 26  2  0
 28 27  1  0
 29 28  2  0
 30 29  1  0
 31 30  2  0
 31 26  1  0
 32 31  1  0
 33 32  2  0
 34 33  1  0
 34 25  2  0
M  END
> <BADATOMS>
7;9;8;6;0
> <BADCOMMENTS>
Weak Density;Weak Density;Weak Density;Weak Density;Weak Density
> <BADATOMNAMES>
[HET]1.S8;[HET]1.O10;[HET]1.O9;[HET]1.C7;[HET]1.N1