
     RDKit          3D

 13 13  0  0  0  0  0  0  0  0999 V2000
   -2.9700    5.8340   -1.2510 N   0  0  0  0  0  0  0  0  0  0  0  0
   -2.0960    4.8030   -0.8560 C   0  0  0  0  0  0  0  0  0  0  0  0
   -1.5460    2.6010    0.1490 C   0  0  2  0  0  0  0  0  0  0  0  0
   -1.7090    1.8690    1.2300 C   0  0  0  0  0  0  0  0  0  0  0  0
   -0.7690    1.0150    1.6590 C   0  0  0  0  0  0  0  0  0  0  0  0
    0.3830    0.9380    0.9590 C   0  0  0  0  0  0  0  0  0  0  0  0
   -0.4050    2.5080   -0.4700 C   0  0  0  0  0  0  0  0  0  0  0  0
   -1.4960    7.6820   -0.9050 C   0  0  0  0  0  0  0  0  0  0  0  0
   -2.4910    7.0310   -1.8340 C   0  0  1  0  0  0  0  0  0  0  0  0
   -1.8570    6.5560   -3.1000 C   0  0  0  0  0  0  0  0  0  0  0  0
    0.5790    1.6930   -0.1130 C   0  0  0  0  0  0  0  0  0  0  0  0
   -2.5330    3.5300   -0.2590 N   0  0  0  0  0  0  0  0  0  0  0  0
   -0.9500    5.0680   -1.0420 O   0  0  0  0  0  0  0  0  0  0  0  0
  2  1  1  0
  4  3  1  0
  5  4  1  0
  6  5  1  0
  7  3  1  0
  9  8  1  1
  9  1  1  0
 10  9  1  0
 11  7  1  0
 11  6  1  0
  3 12  1  1
 12  2  1  0
 13  2  1  0
M  END
