
     RDKit          3D

 21 23  0  0  0  0  0  0  0  0999 V2000
    8.9020    0.8370   21.2880 O   0  0  0  0  0  0  0  0  0  0  0  0
    8.3670   -0.2340   21.5790 C   0  0  0  0  0  0  0  0  0  0  0  0
    8.9540   -1.1640   22.6250 C   0  0  0  0  0  0  0  0  0  0  0  0
   10.3670   -0.7970   23.0200 C   0  0  2  0  0  0  0  0  0  0  0  0
   10.6090    0.1040   24.0510 C   0  0  0  0  0  0  0  0  0  0  0  0
   11.8980    0.5410   24.3240 C   0  0  0  0  0  0  0  0  0  0  0  0
   12.9650    0.0850   23.5670 C   0  0  0  0  0  0  0  0  0  0  0  0
   11.4460   -1.2910   22.2940 C   0  0  0  0  0  0  0  0  0  0  0  0
   12.7220   -0.8370   22.5680 C   0  0  0  0  0  0  0  0  0  0  0  0
   14.0560   -1.4440   21.6210 Cl  0  0  0  0  0  0  0  0  0  0  0  0
    7.2260   -0.6910   21.0050 N   0  0  0  0  0  0  0  0  0  0  0  0
    6.4740   -0.1050   19.9640 C   0  0  1  0  0  0  0  0  0  0  0  0
    5.3510    0.7150   20.3090 C   0  0  0  0  0  0  0  0  0  0  0  0
    4.8710    0.8800   21.6350 C   0  0  0  0  0  0  0  0  0  0  0  0
    3.8170    1.7090   21.9030 C   0  0  0  0  0  0  0  0  0  0  0  0
    3.1950    2.4180   20.8820 C   0  0  0  0  0  0  0  0  0  0  0  0
    3.6130    2.2850   19.5880 C   0  0  0  0  0  0  0  0  0  0  0  0
    4.6920    1.4230   19.2630 C   0  0  0  0  0  0  0  0  0  0  0  0
    5.1660    1.2360   17.9400 C   0  0  0  0  0  0  0  0  0  0  0  0
    6.1900    0.4560   17.6150 N   0  0  0  0  0  0  0  0  0  0  0  0
    6.8190   -0.1870   18.6120 C   0  0  0  0  0  0  0  0  0  0  0  0
  2  1  1  0
  3  2  1  0
  4  3  1  6
  5  4  1  0
  6  5  1  0
  7  6  1  0
  8  4  1  0
  9  8  1  0
  9  7  1  0
 10  9  1  0
 11  2  1  0
 12 11  1  1
 13 12  1  0
 14 13  1  0
 15 14  1  0
 16 15  1  0
 17 16  1  0
 18 17  1  0
 18 13  1  0
 19 18  1  0
 20 19  1  0
 21 20  1  0
 21 12  1  0
M  END
$$$$
