
     RDKit          3D

 32 35  0  0  0  0  0  0  0  0999 V2000
    8.8840    1.3420   20.8900 O   0  0  0  0  0  0  0  0  0  0  0  0
    8.4270    0.3580   21.4510 C   0  0  0  0  0  0  0  0  0  0  0  0
    7.5140   -0.6060   20.7130 C   0  0  0  0  0  0  0  0  0  0  0  0
    6.6360    0.0560   19.6710 C   0  0  0  0  0  0  0  0  0  0  0  0
    5.5160    0.8510   20.0510 C   0  0  0  0  0  0  0  0  0  0  0  0
    5.1260    1.0550   21.4010 C   0  0  0  0  0  0  0  0  0  0  0  0
    4.0540    1.8420   21.7120 C   0  0  0  0  0  0  0  0  0  0  0  0
    3.3160    2.4610   20.7110 C   0  0  0  0  0  0  0  0  0  0  0  0
    3.6420    2.2850   19.3970 C   0  0  0  0  0  0  0  0  0  0  0  0
    4.7450    1.4730   19.0310 C   0  0  0  0  0  0  0  0  0  0  0  0
    5.1370    1.2440   17.6920 C   0  0  0  0  0  0  0  0  0  0  0  0
    6.1760    0.4990   17.3390 N   0  0  0  0  0  0  0  0  0  0  0  0
    6.8920   -0.0710   18.3180 C   0  0  0  0  0  0  0  0  0  0  0  0
    8.7050    0.0880   22.7560 N   0  0  0  0  0  0  0  0  0  0  0  0
    9.5580    1.0140   23.5100 C   0  0  0  0  0  0  0  0  0  0  0  0
   10.9710    0.5140   23.6930 C   0  0  0  0  0  0  0  0  0  0  0  0
   11.6220   -0.1530   22.6590 C   0  0  0  0  0  0  0  0  0  0  0  0
   12.9420   -0.5340   22.8150 C   0  0  1  0  0  0  0  0  0  0  0  0
   13.7770   -1.2440   21.4640 Cl  0  0  0  0  0  0  0  0  0  0  0  0
   13.6300   -0.3050   23.9880 C   0  0  0  0  0  0  0  0  0  0  0  0
   12.9770    0.3400   25.0250 C   0  0  0  0  0  0  0  0  0  0  0  0
   11.6610    0.7500   24.8760 C   0  0  0  0  0  0  0  0  0  0  0  0
    8.2170   -1.0620   23.4450 C   0  0  0  0  0  0  0  0  0  0  0  0
    7.1290   -0.9670   24.3050 C   0  0  0  0  0  0  0  0  0  0  0  0
    6.6560   -2.1000   24.9370 C   0  0  0  0  0  0  0  0  0  0  0  0
    8.8050   -2.3090   23.2460 C   0  0  0  0  0  0  0  0  0  0  0  0
    8.3610   -3.4210   23.8510 N   0  0  0  0  0  0  0  0  0  0  0  0
    7.3080   -3.3180   24.6800 C   0  0  0  0  0  0  0  0  0  0  0  0
    6.9420   -4.5480   25.2480 N   0  0  0  0  0  0  0  0  0  0  0  0
    5.9130   -4.8180   26.0960 C   0  0  0  0  0  0  0  0  0  0  0  0
    5.0450   -3.9940   26.3880 O   0  0  0  0  0  0  0  0  0  0  0  0
    5.8990   -6.2160   26.6440 C   0  0  0  0  0  0  0  0  0  0  0  0
  2  1  1  0
  3  2  1  0
  4  3  1  0
  5  4  1  0
  6  5  1  0
  7  6  1  0
  8  7  1  0
  9  8  1  0
 10  9  1  0
 10  5  1  0
 11 10  1  0
 12 11  1  0
 13 12  1  0
 13  4  1  0
 14  2  1  0
 15 14  1  0
 16 15  1  0
 17 16  1  0
 18 17  1  0
 18 19  1  6
 20 18  1  0
 21 20  1  0
 22 21  1  0
 22 16  1  0
 23 14  1  0
 24 23  1  0
 25 24  1  0
 26 23  1  0
 27 26  1  0
 28 27  1  0
 28 25  1  0
 29 28  1  0
 30 29  1  0
 31 30  1  0
 32 30  1  0
M  END
$$$$
