
     RDKit          3D

 30 33  0  0  0  0  0  0  0  0999 V2000
   13.3600    6.6180   22.0520 O   0  0  0  0  0  0  0  0  0  0  0  0
   13.3650    5.4230   22.3220 C   0  0  0  0  0  0  0  0  0  0  0  0
   12.6360    4.1890   21.8110 C   0  0  0  0  0  0  0  0  0  0  0  0
   14.0650    4.7090   23.2230 N   0  0  0  0  0  0  0  0  0  0  0  0
   13.6620    3.4080   22.6400 C   0  0  1  0  0  0  0  0  0  0  0  0
   12.9090    2.5960   23.5580 O   0  0  0  0  0  0  0  0  0  0  0  0
   12.6640    1.3070   23.1430 C   0  0  0  0  0  0  0  0  0  0  0  0
   13.7010    0.4560   22.7910 C   0  0  0  0  0  0  0  0  0  0  0  0
   13.3850   -0.8330   22.4070 C   0  0  0  0  0  0  0  0  0  0  0  0
   14.6630   -1.8990   21.9000 Cl  0  0  0  0  0  0  0  0  0  0  0  0
   11.3420    0.8890   23.1030 C   0  0  0  0  0  0  0  0  0  0  0  0
   11.0690   -0.4150   22.7220 C   0  0  0  0  0  0  0  0  0  0  0  0
   12.0850   -1.2950   22.3830 C   0  0  0  0  0  0  0  0  0  0  0  0
    9.7380   -0.7410   22.7120 O   0  0  0  0  0  0  0  0  0  0  0  0
    9.3600   -2.0770   22.3520 C   0  0  0  0  0  0  0  0  0  0  0  0
    7.8650   -2.1150   22.3470 C   0  0  0  0  0  0  0  0  0  0  0  0
    7.3280   -1.1330   21.4120 N   0  0  0  0  0  0  0  0  0  0  0  0
    6.1110   -1.2560   20.8870 C   0  0  0  0  0  0  0  0  0  0  0  0
    5.3830   -2.2240   21.1160 O   0  0  0  0  0  0  0  0  0  0  0  0
    5.6690   -0.1520   20.0160 C   0  0  0  0  0  0  0  0  0  0  0  0
    4.6560    0.7980   20.4540 C   0  0  0  0  0  0  0  0  0  0  0  0
    4.1250    0.8110   21.7470 C   0  0  0  0  0  0  0  0  0  0  0  0
    3.1790    1.7620   22.0980 C   0  0  0  0  0  0  0  0  0  0  0  0
    2.7390    2.6920   21.1720 C   0  0  0  0  0  0  0  0  0  0  0  0
    3.2460    2.6930   19.8810 C   0  0  0  0  0  0  0  0  0  0  0  0
    4.2170    1.7560   19.5190 C   0  0  0  0  0  0  0  0  0  0  0  0
    4.7850    1.7750   18.2490 N   0  0  0  0  0  0  0  0  0  0  0  0
    5.7820    0.9320   17.8320 C   0  0  0  0  0  0  0  0  0  0  0  0
    6.3110    1.0940   16.7270 O   0  0  0  0  0  0  0  0  0  0  0  0
    6.1950   -0.0540   18.7700 C   0  0  0  0  0  0  0  0  0  0  0  0
  2  1  2  0
  3  2  1  0
  4  2  1  0
  5  4  1  0
  5  3  1  0
  5  6  1  1
  7  6  1  0
  8  7  2  0
  9  8  1  0
 10  9  1  0
 11  7  1  0
 12 11  2  0
 13 12  1  0
 13  9  2  0
 14 12  1  0
 15 14  1  0
 16 15  1  0
 17 16  1  0
 18 17  1  0
 19 18  2  0
 20 18  1  0
 21 20  1  0
 22 21  2  0
 23 22  1  0
 24 23  2  0
 25 24  1  0
 26 25  2  0
 26 21  1  0
 27 26  1  0
 28 27  1  0
 29 28  2  0
 30 28  1  0
 30 20  2  0
M  END
