
     RDKit          3D

 30 33  0  0  0  0  0  0  0  0999 V2000
   13.9090   -1.5970   21.4260 Cl  0  0  0  0  0  0  0  0  0  0  0  0
   12.7200   -0.9150   22.5000 C   0  0  0  0  0  0  0  0  0  0  0  0
   11.3800   -1.1620   22.2650 C   0  0  0  0  0  0  0  0  0  0  0  0
   13.1340   -0.1240   23.5410 C   0  0  0  0  0  0  0  0  0  0  0  0
   12.1850    0.4320   24.3780 C   0  0  0  0  0  0  0  0  0  0  0  0
   10.8250    0.2070   24.1780 C   0  0  0  0  0  0  0  0  0  0  0  0
    9.8490    0.8030   25.1670 C   0  0  0  0  0  0  0  0  0  0  0  0
    8.4850    0.7950   24.6260 N   0  0  0  0  0  0  0  0  0  0  0  0
    7.3320    1.6870   25.2890 S   0  0  1  0  0  0  0  0  0  0  0  0
    6.0840    1.2670   24.7550 O   0  0  0  0  0  0  0  0  0  0  0  0
    7.5560    1.7170   26.6930 O   0  0  0  0  0  0  0  0  0  0  0  0
    7.6900    3.1270   24.6810 N   0  0  0  0  0  0  0  0  0  0  0  0
    7.1050    3.5080   23.3920 C   0  0  0  0  0  0  0  0  0  0  0  0
    7.9270    4.2380   25.6090 C   0  0  0  0  0  0  0  0  0  0  0  0
   10.4150   -0.5910   23.0970 C   0  0  0  0  0  0  0  0  0  0  0  0
    8.9390   -0.8300   22.8190 C   0  0  1  0  0  0  0  0  0  0  0  0
    8.0860   -0.5000   24.0450 C   0  0  0  0  0  0  0  0  0  0  0  0
    8.4710   -0.0480   21.5880 C   0  0  0  0  0  0  0  0  0  0  0  0
    9.0540    0.9570   21.1910 O   0  0  0  0  0  0  0  0  0  0  0  0
    7.3340   -0.5240   21.0210 N   0  0  0  0  0  0  0  0  0  0  0  0
    6.5850    0.0280   19.9570 C   0  0  0  0  0  0  0  0  0  0  0  0
    5.4390    0.8270   20.2670 C   0  0  0  0  0  0  0  0  0  0  0  0
    4.9830    1.0740   21.5890 C   0  0  0  0  0  0  0  0  0  0  0  0
    3.8930    1.8630   21.8200 C   0  0  0  0  0  0  0  0  0  0  0  0
    3.2010    2.4450   20.7630 C   0  0  0  0  0  0  0  0  0  0  0  0
    3.5960    2.2350   19.4740 C   0  0  0  0  0  0  0  0  0  0  0  0
    4.7230    1.4220   19.1890 C   0  0  0  0  0  0  0  0  0  0  0  0
    5.1860    1.1740   17.8720 C   0  0  0  0  0  0  0  0  0  0  0  0
    6.2380    0.4230   17.5840 N   0  0  0  0  0  0  0  0  0  0  0  0
    6.9060   -0.1280   18.6070 C   0  0  0  0  0  0  0  0  0  0  0  0
  2  1  1  0
  3  2  2  0
  4  2  1  0
  5  4  2  0
  6  5  1  0
  7  6  1  0
  8  7  1  0
  9  8  1  0
 10  9  2  0
 11  9  2  0
  9 12  1  6
 13 12  1  0
 14 12  1  0
 15  6  2  0
 15  3  1  0
 16 15  1  0
 17 16  1  0
 17  8  1  0
 16 18  1  6
 19 18  2  0
 20 18  1  0
 21 20  1  0
 22 21  1  0
 23 22  2  0
 24 23  1  0
 25 24  2  0
 26 25  1  0
 27 26  2  0
 27 22  1  0
 28 27  1  0
 29 28  2  0
 30 29  1  0
 30 21  2  0
M  END
