
     RDKit          3D

 27 30  0  0  0  0  0  0  0  0999 V2000
    2.5380    2.9020   20.9340 F   0  0  0  0  0  0  0  0  0  0  0  0
    3.7050    2.2200   20.7800 C   0  0  0  0  0  0  0  0  0  0  0  0
    4.1200    1.9230   19.5230 C   0  0  0  0  0  0  0  0  0  0  0  0
    4.3930    1.8540   21.9120 C   0  0  0  0  0  0  0  0  0  0  0  0
    5.5590    1.1620   21.7890 C   0  0  0  0  0  0  0  0  0  0  0  0
    6.0640    0.8000   20.5150 C   0  0  0  0  0  0  0  0  0  0  0  0
    5.3160    1.1800   19.3610 C   0  0  0  0  0  0  0  0  0  0  0  0
    5.7980    0.7600   18.0970 C   0  0  0  0  0  0  0  0  0  0  0  0
    6.8970    0.0400   17.9200 N   0  0  0  0  0  0  0  0  0  0  0  0
    7.6030   -0.2930   19.0110 C   0  0  0  0  0  0  0  0  0  0  0  0
    7.2690    0.0500   20.3220 C   0  0  0  0  0  0  0  0  0  0  0  0
    8.0530   -0.2770   21.4550 N   0  0  0  0  0  0  0  0  0  0  0  0
    9.1860    0.3150   21.9220 C   0  0  0  0  0  0  0  0  0  0  0  0
    9.7160    1.3030   21.4300 O   0  0  0  0  0  0  0  0  0  0  0  0
    9.8380   -0.3780   23.1750 C   0  0  1  0  0  0  0  0  0  0  0  0
    9.4570   -1.7410   22.9670 O   0  0  0  0  0  0  0  0  0  0  0  0
    9.8930   -2.6920   23.9440 C   0  0  0  0  0  0  0  0  0  0  0  0
   11.3470   -0.2590   23.2240 C   0  0  0  0  0  0  0  0  0  0  0  0
   12.1130   -0.8200   22.2070 C   0  0  0  0  0  0  0  0  0  0  0  0
   13.4320   -0.4360   22.0590 C   0  0  0  0  0  0  0  0  0  0  0  0
   14.3890   -1.1930   20.8160 Cl  0  0  0  0  0  0  0  0  0  0  0  0
   14.0180    0.5040   22.8870 C   0  0  0  0  0  0  0  0  0  0  0  0
   13.2790    1.0500   23.9220 C   0  0  0  0  0  0  0  0  0  0  0  0
   11.9540    0.6710   24.0820 C   0  0  0  0  0  0  0  0  0  0  0  0
   11.2810    1.2680   25.1190 O   0  0  0  0  0  0  0  0  0  0  0  0
    9.8790    1.5080   24.8470 C   0  0  0  0  0  0  0  0  0  0  0  0
    9.1590    0.2460   24.4070 C   0  0  0  0  0  0  0  0  0  0  0  0
  2  1  1  0
  3  2  2  0
  4  2  1  0
  5  4  2  0
  6  5  1  0
  7  3  1  0
  7  6  2  0
  8  7  1  0
  9  8  2  0
 10  9  1  0
 11 10  2  0
 11  6  1  0
 12 11  1  0
 13 12  1  0
 14 13  2  0
 15 13  1  0
 15 16  1  6
 17 16  1  0
 18 15  1  0
 19 18  2  0
 20 19  1  0
 21 20  1  0
 22 20  2  0
 23 22  1  0
 24 23  2  0
 24 18  1  0
 25 24  1  0
 26 25  1  0
 27 26  1  0
 27 15  1  0
M  END
