
     RDKit          3D

 25 28  0  0  0  0  0  0  0  0999 V2000
    8.5270    0.8710   21.0940 O   0  0  0  0  0  0  0  0  0  0  0  0
    8.0850   -0.2470   21.3110 C   0  0  0  0  0  0  0  0  0  0  0  0
    8.9020   -1.3010   22.0410 C   0  0  1  0  0  0  0  0  0  0  0  0
   10.2490   -0.7980   22.5330 C   0  0  0  0  0  0  0  0  0  0  0  0
   10.3540    0.2240   23.4670 C   0  0  0  0  0  0  0  0  0  0  0  0
   11.5900    0.7120   23.8440 C   0  0  0  0  0  0  0  0  0  0  0  0
   11.4100   -1.3560   22.0140 C   0  0  0  0  0  0  0  0  0  0  0  0
   12.6470   -0.8820   22.4020 C   0  0  0  0  0  0  0  0  0  0  0  0
   14.0710   -1.6490   21.7770 Cl  0  0  0  0  0  0  0  0  0  0  0  0
   12.7400    0.1670   23.3020 C   0  0  0  0  0  0  0  0  0  0  0  0
   14.2710    0.8500   23.7220 Cl  0  0  0  0  0  0  0  0  0  0  0  0
    6.8440   -0.6270   20.8830 N   0  0  0  0  0  0  0  0  0  0  0  0
    6.0120   -1.6450   21.5570 C   0  0  0  0  0  0  0  0  0  0  0  0
    6.8150   -2.6440   22.3910 C   0  0  0  0  0  0  0  0  0  0  0  0
    8.0170   -1.9960   23.0760 C   0  0  0  0  0  0  0  0  0  0  0  0
    6.1870    0.1050   19.8440 C   0  0  0  0  0  0  0  0  0  0  0  0
    5.1160    1.0240   20.0660 C   0  0  0  0  0  0  0  0  0  0  0  0
    4.5940    1.3490   21.3470 C   0  0  0  0  0  0  0  0  0  0  0  0
    3.5640    2.2360   21.4840 C   0  0  0  0  0  0  0  0  0  0  0  0
    3.0000    2.8390   20.3720 C   0  0  0  0  0  0  0  0  0  0  0  0
    3.4680    2.5660   19.1190 C   0  0  0  0  0  0  0  0  0  0  0  0
    4.5420    1.6610   18.9310 C   0  0  0  0  0  0  0  0  0  0  0  0
    5.0900    1.3630   17.6580 C   0  0  0  0  0  0  0  0  0  0  0  0
    6.0980    0.5280   17.4580 N   0  0  0  0  0  0  0  0  0  0  0  0
    6.6130   -0.0800   18.5340 C   0  0  0  0  0  0  0  0  0  0  0  0
  2  1  2  0
  3  2  1  0
  3  4  1  1
  5  4  2  0
  6  5  1  0
  7  4  1  0
  8  7  2  0
  9  8  1  0
 10  8  1  0
 10  6  2  0
 11 10  1  0
 12  2  1  0
 13 12  1  0
 14 13  1  0
 15 14  1  0
 15  3  1  0
 16 12  1  0
 17 16  1  0
 18 17  2  0
 19 18  1  0
 20 19  2  0
 21 20  1  0
 22 21  2  0
 22 17  1  0
 23 22  1  0
 24 23  2  0
 25 24  1  0
 25 16  2  0
M  END
