
     RDKit          3D

 25 28  0  0  0  0  0  0  0  0999 V2000
   13.6950   -1.5520   21.3760 Cl  0  0  0  0  0  0  0  0  0  0  0  0
   12.4240   -0.8710   22.3400 C   0  0  0  0  0  0  0  0  0  0  0  0
   12.7140    0.0880   23.2850 C   0  0  0  0  0  0  0  0  0  0  0  0
   13.9940    0.4840   23.4480 F   0  0  0  0  0  0  0  0  0  0  0  0
   11.1170   -1.2720   22.1500 C   0  0  0  0  0  0  0  0  0  0  0  0
   10.0880   -0.7070   22.9030 C   0  0  0  0  0  0  0  0  0  0  0  0
   10.4280    0.2410   23.8780 C   0  0  0  0  0  0  0  0  0  0  0  0
   11.7360    0.6480   24.0680 C   0  0  0  0  0  0  0  0  0  0  0  0
    8.6350   -1.0430   22.6390 C   0  0  1  0  0  0  0  0  0  0  0  0
    7.7870   -0.7210   23.8780 C   0  0  0  0  0  0  0  0  0  0  0  0
    8.1220    0.6590   24.3850 C   0  0  0  0  0  0  0  0  0  0  0  0
    9.5130    0.7810   24.7510 O   0  0  0  0  0  0  0  0  0  0  0  0
    8.1870   -0.1820   21.4540 C   0  0  0  0  0  0  0  0  0  0  0  0
    8.8010    0.8270   21.1060 O   0  0  0  0  0  0  0  0  0  0  0  0
    7.0680   -0.6170   20.8370 N   0  0  0  0  0  0  0  0  0  0  0  0
    6.3750   -0.0180   19.7680 C   0  0  0  0  0  0  0  0  0  0  0  0
    5.2600    0.8230   20.0680 C   0  0  0  0  0  0  0  0  0  0  0  0
    4.7770    1.0590   21.3820 C   0  0  0  0  0  0  0  0  0  0  0  0
    3.6950    1.8600   21.5990 C   0  0  0  0  0  0  0  0  0  0  0  0
    3.0410    2.4680   20.5370 C   0  0  0  0  0  0  0  0  0  0  0  0
    3.4700    2.2800   19.2560 C   0  0  0  0  0  0  0  0  0  0  0  0
    4.5860    1.4530   18.9830 C   0  0  0  0  0  0  0  0  0  0  0  0
    5.0690    1.2020   17.6740 C   0  0  0  0  0  0  0  0  0  0  0  0
    6.1090    0.4260   17.3990 N   0  0  0  0  0  0  0  0  0  0  0  0
    6.7330   -0.1640   18.4270 C   0  0  0  0  0  0  0  0  0  0  0  0
  2  1  1  0
  3  2  2  0
  4  3  1  0
  5  2  1  0
  6  5  2  0
  7  6  1  0
  8  7  2  0
  8  3  1  0
  9  6  1  0
 10  9  1  0
 11 10  1  0
 12 11  1  0
 12  7  1  0
  9 13  1  6
 14 13  2  0
 15 13  1  0
 16 15  1  0
 17 16  1  0
 18 17  2  0
 19 18  1  0
 20 19  2  0
 21 20  1  0
 22 21  2  0
 22 17  1  0
 23 22  1  0
 24 23  2  0
 25 24  1  0
 25 16  2  0
M  END
