
     RDKit          3D

 34 37  0  0  0  0  0  0  0  0999 V2000
   10.5580   -0.2630   22.0730 C   0  0  1  0  0  0  0  0  0  0  0  0
    7.9000   -3.2070   19.7490 C   0  0  0  0  0  0  0  0  0  0  0  0
    7.1410   -0.8870   18.9090 C   0  0  0  0  0  0  0  0  0  0  0  0
    4.7950    1.8510   19.8540 C   0  0  0  0  0  0  0  0  0  0  0  0
    6.2560    1.3510   18.1330 C   0  0  0  0  0  0  0  0  0  0  0  0
   10.7350    3.4980   22.4900 C   0  0  0  0  0  0  0  0  0  0  0  0
    9.8700    5.6540   23.3680 C   0  0  0  0  0  0  0  0  0  0  0  0
    9.6700    7.9860   22.7960 C   0  0  0  0  0  0  0  0  0  0  0  0
    9.7120    2.0670   20.8830 O   0  0  0  0  0  0  0  0  0  0  0  0
   10.3240    2.1450   21.9370 C   0  0  0  0  0  0  0  0  0  0  0  0
   10.6590    1.0760   22.6540 N   0  0  0  0  0  0  0  0  0  0  0  0
   11.1730    1.0780   24.0310 C   0  0  0  0  0  0  0  0  0  0  0  0
   11.6330   -0.3380   24.2580 C   0  0  2  0  0  0  0  0  0  0  0  0
   13.1430   -0.4100   24.0800 C   0  0  0  0  0  0  0  0  0  0  0  0
   13.4290   -1.3820   22.9360 C   0  0  0  0  0  0  0  0  0  0  0  0
   12.1150   -2.0600   22.6130 C   0  0  0  0  0  0  0  0  0  0  0  0
   11.0000   -1.1920   23.1800 C   0  0  2  0  0  0  0  0  0  0  0  0
    9.1640   -0.6340   21.6830 C   0  0  1  0  0  0  0  0  0  0  0  0
    8.2300   -0.3250   22.4020 O   0  0  0  0  0  0  0  0  0  0  0  0
    9.0240   -1.2270   20.5020 N   0  0  0  0  0  0  0  0  0  0  0  0
    7.7300   -1.7180   20.0620 C   0  0  2  0  0  0  0  0  0  0  0  0
    6.6340   -3.7870   19.4310 O   0  0  0  0  0  0  0  0  0  0  0  0
    6.7790    0.5570   19.3010 C   0  0  1  0  0  0  0  0  0  0  0  0
    5.6480    0.6580   20.3240 C   0  0  0  0  0  0  0  0  0  0  0  0
    5.1930    2.0780   18.4730 N   0  0  0  0  0  0  0  0  0  0  0  0
    6.7850    1.3440   17.0380 O   0  0  0  0  0  0  0  0  0  0  0  0
    9.5160    4.2100   23.0530 C   0  0  0  0  0  0  0  0  0  0  0  0
    9.3740    6.6540   22.5490 C   0  0  0  0  0  0  0  0  0  0  0  0
    9.1580    8.9280   21.9890 F   0  0  0  0  0  0  0  0  0  0  0  0
   10.4480    8.3410   23.8870 C   0  0  0  0  0  0  0  0  0  0  0  0
   10.9740    7.3390   24.6890 C   0  0  0  0  0  0  0  0  0  0  0  0
   11.7340    7.6850   25.7350 F   0  0  0  0  0  0  0  0  0  0  0  0
   10.6870    5.9920   24.4420 C   0  0  0  0  0  0  0  0  0  0  0  0
    8.9630   -3.4100   18.3520 S   0  0  0  0  0  0  0  0  0  0  0  0
 10  9  1  0
 10  6  1  0
 11 10  1  0
  1 11  1  1
 12 11  1  0
 13 12  1  6
 14 13  1  0
 15 14  1  0
 16 15  1  0
 17  1  1  0
 17 16  1  6
 17 13  1  0
 18  1  1  0
 18 19  1  6
 20 18  1  0
 21 20  1  0
 21  3  1  6
 21  2  1  0
 22  2  1  0
 23  5  1  0
 23  3  1  6
 24  4  1  0
 24 23  1  0
 25  4  1  0
 25  5  1  0
 26  5  1  0
 27  6  1  0
 27  7  1  0
 28  8  1  0
 28  7  1  0
 29  8  1  0
 30  8  1  0
 31 30  1  0
 32 31  1  0
 33  7  1  0
 33 31  1  0
  2 34  1  0
M  END
