
     RDKit          3D

 24 26  0  0  0  0  0  0  0  0999 V2000
   13.9330   -1.4160   21.7890 Cl  0  0  0  0  0  0  0  0  0  0  0  0
   12.5000   -0.7800   22.5200 C   0  0  0  0  0  0  0  0  0  0  0  0
   12.5700    0.2580   23.4370 C   0  0  0  0  0  0  0  0  0  0  0  0
   14.1010    0.8920   23.9500 Cl  0  0  0  0  0  0  0  0  0  0  0  0
   11.4060    0.7700   23.9860 C   0  0  0  0  0  0  0  0  0  0  0  0
   10.1840    0.2380   23.6220 C   0  0  0  0  0  0  0  0  0  0  0  0
   11.2750   -1.3120   22.1610 C   0  0  0  0  0  0  0  0  0  0  0  0
   10.1000   -0.8000   22.7010 C   0  0  0  0  0  0  0  0  0  0  0  0
    8.7650   -1.3370   22.2390 C   0  0  1  0  0  0  0  0  0  0  0  0
    8.0830   -2.1290   23.2020 O   0  0  0  0  0  0  0  0  0  0  0  0
    7.0590   -1.4230   23.9010 C   0  0  0  0  0  0  0  0  0  0  0  0
    7.9560   -0.2940   21.4590 C   0  0  0  0  0  0  0  0  0  0  0  0
    8.2160    0.9010   21.5680 O   0  0  0  0  0  0  0  0  0  0  0  0
    7.0270   -0.7890   20.6090 N   0  0  0  0  0  0  0  0  0  0  0  0
    6.3540   -0.1110   19.5750 C   0  0  0  0  0  0  0  0  0  0  0  0
    5.2260    0.7040   19.9030 C   0  0  0  0  0  0  0  0  0  0  0  0
    4.7200    0.8620   21.2200 C   0  0  0  0  0  0  0  0  0  0  0  0
    3.6420    1.6620   21.4660 C   0  0  0  0  0  0  0  0  0  0  0  0
    3.0190    2.3500   20.4330 C   0  0  0  0  0  0  0  0  0  0  0  0
    3.4690    2.2330   19.1490 C   0  0  0  0  0  0  0  0  0  0  0  0
    4.5780    1.4020   18.8470 C   0  0  0  0  0  0  0  0  0  0  0  0
    5.0850    1.2350   17.5370 C   0  0  0  0  0  0  0  0  0  0  0  0
    6.1290    0.4790   17.2340 N   0  0  0  0  0  0  0  0  0  0  0  0
    6.7380   -0.1670   18.2370 C   0  0  0  0  0  0  0  0  0  0  0  0
  2  1  1  0
  3  2  2  0
  4  3  1  0
  5  3  1  0
  6  5  2  0
  7  2  1  0
  8  6  1  0
  8  7  2  0
  9  8  1  0
  9 10  1  1
 11 10  1  0
 12  9  1  0
 13 12  2  0
 14 12  1  0
 15 14  1  0
 16 15  1  0
 17 16  2  0
 18 17  1  0
 19 18  2  0
 20 19  1  0
 21 20  2  0
 21 16  1  0
 22 21  1  0
 23 22  2  0
 24 23  1  0
 24 15  2  0
M  END
