
     RDKit          3D

 28 31  0  0  0  0  0  0  0  0999 V2000
   13.9580   -1.3220   21.4060 Cl  0  0  0  0  0  0  0  0  0  0  0  0
   12.7450   -0.5000   22.3510 C   0  0  0  0  0  0  0  0  0  0  0  0
   13.1120    0.5750   23.1310 C   0  0  0  0  0  0  0  0  0  0  0  0
   12.1460    1.2380   23.8670 C   0  0  0  0  0  0  0  0  0  0  0  0
   11.4340   -0.9270   22.2730 C   0  0  0  0  0  0  0  0  0  0  0  0
   10.4450   -0.2510   22.9850 C   0  0  0  0  0  0  0  0  0  0  0  0
   10.8260    0.8140   23.7950 C   0  0  0  0  0  0  0  0  0  0  0  0
    9.9280    1.4590   24.6060 O   0  0  0  0  0  0  0  0  0  0  0  0
    8.9270    0.5720   25.1330 C   0  0  0  0  0  0  0  0  0  0  0  0
    8.0940   -0.0770   24.0490 C   0  0  0  0  0  0  0  0  0  0  0  0
    8.9700   -0.5760   22.8580 C   0  0  1  0  0  0  0  0  0  0  0  0
    8.4850    0.1040   21.5760 C   0  0  0  0  0  0  0  0  0  0  0  0
    9.0010    1.1310   21.1480 O   0  0  0  0  0  0  0  0  0  0  0  0
    7.4200   -0.4930   20.9910 N   0  0  0  0  0  0  0  0  0  0  0  0
    6.6330   -0.0140   19.9210 C   0  0  0  0  0  0  0  0  0  0  0  0
    6.9470   -0.1720   18.5710 C   0  0  0  0  0  0  0  0  0  0  0  0
    6.2470    0.3410   17.5510 N   0  0  0  0  0  0  0  0  0  0  0  0
    5.1680    1.0490   17.8450 C   0  0  0  0  0  0  0  0  0  0  0  0
    5.4690    0.7490   20.2390 C   0  0  0  0  0  0  0  0  0  0  0  0
    4.7180    1.3010   19.1640 C   0  0  0  0  0  0  0  0  0  0  0  0
    3.5770    2.0880   19.4560 C   0  0  0  0  0  0  0  0  0  0  0  0
    3.1970    2.3200   20.7460 C   0  0  0  0  0  0  0  0  0  0  0  0
    5.0420    1.0060   21.5660 C   0  0  0  0  0  0  0  0  0  0  0  0
    3.9350    1.7790   21.7910 C   0  0  0  0  0  0  0  0  0  0  0  0
    3.4610    2.1210   23.4590 S   0  0  1  0  0  0  0  0  0  0  0  0
    2.3180    1.3120   23.7760 O   0  0  0  0  0  0  0  0  0  0  0  0
    4.6270    2.0010   24.2900 O   0  0  0  0  0  0  0  0  0  0  0  0
    2.9660    3.8020   23.4340 C   0  0  0  0  0  0  0  0  0  0  0  0
  2  1  1  0
  3  2  2  0
  4  3  1  0
  5  2  1  0
  6  5  2  0
  7  6  1  0
  7  4  2  0
  8  7  1  0
  9  8  1  0
 10  9  1  0
 11 10  1  0
 11  6  1  0
 11 12  1  6
 13 12  2  0
 14 12  1  0
 15 14  1  0
 16 15  2  0
 17 16  1  0
 18 17  2  0
 19 15  1  0
 20 18  1  0
 20 19  2  0
 21 20  1  0
 22 21  2  0
 23 19  1  0
 24 23  2  0
 24 22  1  0
 25 24  1  0
 26 25  2  0
 27 25  2  0
 25 28  1  6
M  END
