
     RDKit          3D

 32 35  0  0  0  0  0  0  0  0999 V2000
   13.9280   -1.2350   21.4320 Cl  0  0  0  0  0  0  0  0  0  0  0  0
   12.6680   -0.5610   22.4180 C   0  0  0  0  0  0  0  0  0  0  0  0
   12.9500    0.3760   23.4120 C   0  0  0  0  0  0  0  0  0  0  0  0
   14.5510    1.0140   23.6270 Cl  0  0  0  0  0  0  0  0  0  0  0  0
   11.9300    0.8630   24.2030 C   0  0  0  0  0  0  0  0  0  0  0  0
   10.6310    0.4470   23.9830 C   0  0  0  0  0  0  0  0  0  0  0  0
   11.3670   -0.9780   22.1970 C   0  0  0  0  0  0  0  0  0  0  0  0
   10.3300   -0.4690   22.9770 C   0  0  0  0  0  0  0  0  0  0  0  0
    8.8840   -0.9120   22.7090 C   0  0  1  0  0  0  0  0  0  0  0  0
    8.8520   -2.4130   22.4000 C   0  0  0  0  0  0  0  0  0  0  0  0
    8.0490   -0.6610   23.8940 N   0  0  0  0  0  0  0  0  0  0  0  0
    7.4510    0.4840   24.2600 C   0  0  0  0  0  0  0  0  0  0  0  0
    7.5710    1.5450   23.6550 O   0  0  0  0  0  0  0  0  0  0  0  0
    6.6280    0.3730   25.5150 C   0  0  1  0  0  0  0  0  0  0  0  0
    7.0670    1.3870   26.5960 C   0  0  0  0  0  0  0  0  0  0  0  0
    5.7900    2.0180   27.1370 C   0  0  0  0  0  0  0  0  0  0  0  0
    5.1700    0.7680   25.2740 C   0  0  0  0  0  0  0  0  0  0  0  0
    4.6910    1.2040   26.5880 N   0  0  0  0  0  0  0  0  0  0  0  0
    3.4150    1.9340   26.5260 C   0  0  0  0  0  0  0  0  0  0  0  0
    8.3470   -0.1220   21.4710 C   0  0  0  0  0  0  0  0  0  0  0  0
    8.9690    0.8200   20.9920 O   0  0  0  0  0  0  0  0  0  0  0  0
    7.1490   -0.5300   21.0000 N   0  0  0  0  0  0  0  0  0  0  0  0
    6.4820    0.0030   19.8780 C   0  0  0  0  0  0  0  0  0  0  0  0
    5.3960    0.9110   20.0840 C   0  0  0  0  0  0  0  0  0  0  0  0
    4.8680    1.2350   21.3610 C   0  0  0  0  0  0  0  0  0  0  0  0
    3.8140    2.0980   21.4890 C   0  0  0  0  0  0  0  0  0  0  0  0
    3.2370    2.6820   20.3690 C   0  0  0  0  0  0  0  0  0  0  0  0
    3.7080    2.4030   19.1180 C   0  0  0  0  0  0  0  0  0  0  0  0
    4.8000    1.5140   18.9400 C   0  0  0  0  0  0  0  0  0  0  0  0
    5.3230    1.1740   17.6670 C   0  0  0  0  0  0  0  0  0  0  0  0
    6.3250    0.3300   17.4750 N   0  0  0  0  0  0  0  0  0  0  0  0
    6.8740   -0.2340   18.5600 C   0  0  0  0  0  0  0  0  0  0  0  0
  2  1  1  0
  3  2  2  0
  4  3  1  0
  5  3  1  0
  6  5  2  0
  7  2  1  0
  8  6  1  0
  8  7  2  0
  9  8  1  0
  9 10  1  6
 11  9  1  0
 12 11  1  0
 13 12  2  0
 14 12  1  6
 15 14  1  0
 16 15  1  0
 17 14  1  0
 18 17  1  0
 18 16  1  0
 19 18  1  0
 20  9  1  0
 21 20  2  0
 22 20  1  0
 23 22  1  0
 24 23  1  0
 25 24  2  0
 26 25  1  0
 27 26  2  0
 28 27  1  0
 29 28  2  0
 29 24  1  0
 30 29  1  0
 31 30  2  0
 32 31  1  0
 32 23  2  0
M  END
> <BADATOMS>
16;14;15;17;18
> <BADCOMMENTS>
Weak Density;Weak Density;Weak Density;Weak Density;Weak Density
> <BADATOMNAMES>
[HET]1.C17;[HET]1.C15;[HET]1.C16;[HET]1.N18;[HET]1.C19