
     RDKit          3D

 28 31  0  0  0  0  0  0  0  0999 V2000
    9.4470    1.1290   21.0290 O   0  0  0  0  0  0  0  0  0  0  0  0
    8.9180    0.1580   21.5550 C   0  0  0  0  0  0  0  0  0  0  0  0
    9.5220   -0.4640   22.8270 C   0  0  1  0  0  0  0  0  0  0  0  0
   11.0350   -0.1960   22.8630 C   0  0  0  0  0  0  0  0  0  0  0  0
   11.8810   -0.8830   21.9950 C   0  0  0  0  0  0  0  0  0  0  0  0
   13.2190   -0.5440   21.9450 C   0  0  0  0  0  0  0  0  0  0  0  0
   14.2480   -1.3510   20.7970 Cl  0  0  0  0  0  0  0  0  0  0  0  0
   13.7480    0.4410   22.7480 C   0  0  0  0  0  0  0  0  0  0  0  0
   12.9240    1.0980   23.6430 C   0  0  0  0  0  0  0  0  0  0  0  0
   11.5660    0.7940   23.7020 C   0  0  0  0  0  0  0  0  0  0  0  0
   10.7560    1.4860   24.5590 N   0  0  0  0  0  0  0  0  0  0  0  0
    9.3330    1.5980   24.3010 C   0  0  0  0  0  0  0  0  0  0  0  0
    8.7580    0.2370   23.9750 C   0  0  0  0  0  0  0  0  0  0  0  0
    9.3090   -1.9940   22.8920 C   0  0  0  0  0  0  0  0  0  0  0  0
    9.8300   -2.6160   24.1720 C   0  0  0  0  0  0  0  0  0  0  0  0
   10.0630   -3.9890   24.2230 O   0  0  0  0  0  0  0  0  0  0  0  0
   10.4300   -4.3980   25.5300 C   0  0  0  0  0  0  0  0  0  0  0  0
    7.7700   -0.3890   21.0880 N   0  0  0  0  0  0  0  0  0  0  0  0
    7.0410    0.0350   19.9590 C   0  0  0  0  0  0  0  0  0  0  0  0
    5.8510    0.7970   20.1630 C   0  0  0  0  0  0  0  0  0  0  0  0
    5.3310    1.1180   21.4410 C   0  0  0  0  0  0  0  0  0  0  0  0
    4.2250    1.9090   21.5720 C   0  0  0  0  0  0  0  0  0  0  0  0
    3.5800    2.4100   20.4550 C   0  0  0  0  0  0  0  0  0  0  0  0
    4.0320    2.1180   19.2020 C   0  0  0  0  0  0  0  0  0  0  0  0
    5.1800    1.3080   19.0200 C   0  0  0  0  0  0  0  0  0  0  0  0
    5.7220    1.0060   17.7460 C   0  0  0  0  0  0  0  0  0  0  0  0
    6.8200    0.2890   17.5560 N   0  0  0  0  0  0  0  0  0  0  0  0
    7.4520   -0.1730   18.6430 C   0  0  0  0  0  0  0  0  0  0  0  0
  2  1  2  0
  3  2  1  0
  4  3  1  0
  5  4  2  0
  6  5  1  0
  7  6  1  0
  8  6  2  0
  9  8  1  0
 10  9  2  0
 10  4  1  0
 11 10  1  0
 12 11  1  0
 13 12  1  0
 13  3  1  0
  3 14  1  6
 15 14  1  0
 16 15  1  0
 17 16  1  0
 18  2  1  0
 19 18  1  0
 20 19  1  0
 21 20  2  0
 22 21  1  0
 23 22  2  0
 24 23  1  0
 25 24  2  0
 25 20  1  0
 26 25  1  0
 27 26  2  0
 28 27  1  0
 28 19  2  0
M  END
