
     RDKit          3D

 27 30  0  0  0  0  0  0  0  0999 V2000
   13.8420   -1.7470   21.5320 Cl  0  0  0  0  0  0  0  0  0  0  0  0
   12.6420   -0.8550   22.4230 C   0  0  0  0  0  0  0  0  0  0  0  0
   13.0480    0.1610   23.2680 C   0  0  0  0  0  0  0  0  0  0  0  0
   12.1030    0.8490   24.0110 C   0  0  0  0  0  0  0  0  0  0  0  0
   10.7730    0.4880   23.8840 C   0  0  0  0  0  0  0  0  0  0  0  0
    9.7100    0.9960   24.5920 O   0  0  0  0  0  0  0  0  0  0  0  0
    8.4910    0.3110   24.2020 C   0  0  0  0  0  0  0  0  0  0  0  0
   11.3090   -1.1920   22.2720 C   0  0  0  0  0  0  0  0  0  0  0  0
   10.3600   -0.4940   23.0080 C   0  0  0  0  0  0  0  0  0  0  0  0
    8.8460   -0.5350   22.9780 C   0  0  2  0  0  0  0  0  0  0  0  0
    8.1420   -0.1160   21.6890 C   0  0  0  0  0  0  0  0  0  0  0  0
    8.4640    0.8930   21.0820 O   0  0  0  0  0  0  0  0  0  0  0  0
    7.1180   -0.9550   21.1780 N   0  0  0  0  0  0  0  0  0  0  0  0
    6.7350   -2.1960   21.7620 C   0  0  0  0  0  0  0  0  0  0  0  0
    7.2200   -2.5710   22.8240 O   0  0  0  0  0  0  0  0  0  0  0  0
    5.7020   -3.0260   21.0520 C   0  0  0  0  0  0  0  0  0  0  0  0
    6.3650   -4.1480   20.2070 C   0  0  0  0  0  0  0  0  0  0  0  0
    6.3810   -0.4590   20.0340 C   0  0  0  0  0  0  0  0  0  0  0  0
    6.9120   -0.5550   18.7490 C   0  0  0  0  0  0  0  0  0  0  0  0
    6.4800    0.1360   17.6850 N   0  0  0  0  0  0  0  0  0  0  0  0
    5.4680    0.9730   17.8680 C   0  0  0  0  0  0  0  0  0  0  0  0
    4.8390    1.2010   19.1180 C   0  0  0  0  0  0  0  0  0  0  0  0
    5.3090    0.4640   20.2440 C   0  0  0  0  0  0  0  0  0  0  0  0
    3.7800    2.1280   19.2930 C   0  0  0  0  0  0  0  0  0  0  0  0
    3.2160    2.3140   20.5230 C   0  0  0  0  0  0  0  0  0  0  0  0
    3.6680    1.5950   21.6250 C   0  0  0  0  0  0  0  0  0  0  0  0
    4.6850    0.6920   21.4990 C   0  0  0  0  0  0  0  0  0  0  0  0
  2  1  1  0
  3  2  2  0
  4  3  1  0
  5  4  2  0
  6  5  1  0
  7  6  1  0
  8  2  1  0
  9  5  1  0
  9  8  2  0
 10  9  1  0
 10  7  1  0
 10 11  1  6
 12 11  2  0
 13 11  1  0
 14 13  1  0
 15 14  2  0
 16 14  1  0
 17 16  1  0
 18 13  1  0
 19 18  2  0
 20 19  1  0
 21 20  2  0
 22 21  1  0
 23 22  2  0
 23 18  1  0
 24 22  1  0
 25 24  2  0
 26 25  1  0
 27 26  2  0
 27 23  1  0
M  END
> <BADATOMS>
15;16;19;20
> <BADCOMMENTS>
Weak Density;Weak Density;Weak Density;Weak Density
> <BADATOMNAMES>
[HET]1.C16;[HET]1.C17;[HET]1.N20;[HET]1.C21