
     RDKit          3D

 25 27  0  0  0  0  0  0  0  0999 V2000
   14.0290    6.9570   21.5310 O   0  0  0  0  0  0  0  0  0  0  0  0
   13.5080    5.8930   21.8520 C   0  0  0  0  0  0  0  0  0  0  0  0
   13.3380    4.5270   21.2050 C   0  0  0  0  0  0  0  0  0  0  0  0
   12.8700    5.5090   22.9720 N   0  0  0  0  0  0  0  0  0  0  0  0
   12.4960    4.1960   22.4440 C   0  0  2  0  0  0  0  0  0  0  0  0
   13.1130    3.1020   23.1620 O   0  0  0  0  0  0  0  0  0  0  0  0
   12.6460    1.8360   22.8710 C   0  0  0  0  0  0  0  0  0  0  0  0
   13.5160    0.8220   22.4940 C   0  0  0  0  0  0  0  0  0  0  0  0
   12.9840   -0.4200   22.2060 C   0  0  0  0  0  0  0  0  0  0  0  0
   14.0530   -1.7040   21.7070 Cl  0  0  0  0  0  0  0  0  0  0  0  0
   11.6280   -0.6690   22.2870 C   0  0  0  0  0  0  0  0  0  0  0  0
   11.2820    1.6070   22.9620 C   0  0  0  0  0  0  0  0  0  0  0  0
   10.7600    0.3570   22.6530 C   0  0  0  0  0  0  0  0  0  0  0  0
    9.2530    0.1380   22.6580 C   0  0  2  0  0  0  0  0  0  0  0  0
    8.7900   -1.2700   23.0710 C   0  0  0  0  0  0  0  0  0  0  0  0
    8.5380    0.9690   21.5870 C   0  0  0  0  0  0  0  0  0  0  0  0
    8.4500    2.1910   21.6800 O   0  0  0  0  0  0  0  0  0  0  0  0
    8.0650    0.2690   20.5170 N   0  0  0  0  0  0  0  0  0  0  0  0
    6.9050    0.4170   19.7070 C   0  0  0  0  0  0  0  0  0  0  0  0
    5.7780    1.1510   20.1450 C   0  0  0  0  0  0  0  0  0  0  0  0
    5.3930    1.2390   21.6000 C   0  0  0  0  0  0  0  0  0  0  0  0
    4.8990    1.6130   19.1730 C   0  0  0  0  0  0  0  0  0  0  0  0
    5.1160    1.2940   17.8490 C   0  0  0  0  0  0  0  0  0  0  0  0
    6.1280    0.5300   17.4290 N   0  0  0  0  0  0  0  0  0  0  0  0
    6.9950    0.1000   18.3520 C   0  0  0  0  0  0  0  0  0  0  0  0
  2  1  2  0
  3  2  1  0
  4  2  1  0
  5  3  1  0
  5  4  1  0
  5  6  1  1
  7  6  1  0
  8  7  2  0
  9  8  1  0
 10  9  1  0
 11  9  2  0
 12  7  1  0
 13 12  2  0
 13 11  1  0
 14 13  1  0
 14 15  1  6
 16 14  1  0
 17 16  2  0
 18 16  1  0
 19 18  1  0
 20 19  2  0
 21 20  1  0
 22 20  1  0
 23 22  2  0
 24 23  1  0
 25 24  2  0
 25 19  1  0
M  END
