
     RDKit          3D

 10 10  0  0  0  0  0  0  0  0999 V2000
   16.5580   30.2020   -6.6280 C   0  0  0  0  0  0  0  0  0  0  0  0
   15.4620   29.8820   -5.6520 C   0  0  0  0  0  0  0  0  0  0  0  0
   15.0370   28.5720   -5.4330 C   0  0  0  0  0  0  0  0  0  0  0  0
   14.0290   28.3300   -4.5170 C   0  0  0  0  0  0  0  0  0  0  0  0
   13.7910   30.5530   -4.0790 C   0  0  0  0  0  0  0  0  0  0  0  0
   14.8080   30.8970   -4.9700 C   0  0  0  0  0  0  0  0  0  0  0  0
   17.4950   31.0680   -6.2590 N   0  0  0  0  0  0  0  0  0  0  0  0
   13.4120   29.3100   -3.8420 N   0  0  0  0  0  0  0  0  0  0  0  0
   16.5470   29.6850   -7.7570 O   0  0  0  0  0  0  0  0  0  0  0  0
   12.9840   31.8100   -3.1910 Cl  0  0  0  0  0  0  0  0  0  0  0  0
  2  1  1  0
  3  2  1  0
  4  3  1  0
  6  2  1  0
  6  5  1  0
  7  1  1  0
  8  5  1  0
  8  4  1  0
  9  1  1  0
 10  5  1  0
M  END
