
     RDKit          3D

 31 34  0  0  0  0  0  0  0  0999 V2000
   13.9410   -1.6490   21.4000 Cl  0  0  0  0  0  0  0  0  0  0  0  0
   12.7640   -0.9230   22.4600 C   0  0  0  0  0  0  0  0  0  0  0  0
   11.4210   -1.1310   22.2170 C   0  0  0  0  0  0  0  0  0  0  0  0
   13.1940   -0.1380   23.5030 C   0  0  0  0  0  0  0  0  0  0  0  0
   12.2540    0.4570   24.3230 C   0  0  0  0  0  0  0  0  0  0  0  0
   10.8880    0.2740   24.1120 C   0  0  0  0  0  0  0  0  0  0  0  0
    9.9390    0.9200   25.1010 C   0  0  0  0  0  0  0  0  0  0  0  0
    8.5240    0.7770   24.7340 N   0  0  0  0  0  0  0  0  0  0  0  0
    7.3300    1.7510   25.1880 S   0  0  2  0  0  0  0  0  0  0  0  0
    7.3770    1.8580   26.6040 O   0  0  0  0  0  0  0  0  0  0  0  0
    6.1410    1.3320   24.5300 O   0  0  0  0  0  0  0  0  0  0  0  0
    7.7800    3.1550   24.5580 N   0  0  0  0  0  0  0  0  0  0  0  0
    8.2000    4.2240   25.4710 C   0  0  0  0  0  0  0  0  0  0  0  0
    7.7740    3.5030   23.1250 C   0  0  0  0  0  0  0  0  0  0  0  0
    6.6040    4.3710   22.7430 C   0  0  0  0  0  0  0  0  0  0  0  0
   10.4660   -0.5300   23.0400 C   0  0  0  0  0  0  0  0  0  0  0  0
    8.9920   -0.7960   22.8000 C   0  0  1  0  0  0  0  0  0  0  0  0
    8.1680   -0.4780   24.0470 C   0  0  0  0  0  0  0  0  0  0  0  0
    8.5230   -0.0530   21.5470 C   0  0  0  0  0  0  0  0  0  0  0  0
    9.1360    0.9060   21.0880 O   0  0  0  0  0  0  0  0  0  0  0  0
    7.3570   -0.5040   21.0280 N   0  0  0  0  0  0  0  0  0  0  0  0
    6.6100    0.0420   19.9620 C   0  0  0  0  0  0  0  0  0  0  0  0
    5.4810    0.8650   20.2740 C   0  0  0  0  0  0  0  0  0  0  0  0
    5.0360    1.1240   21.5980 C   0  0  0  0  0  0  0  0  0  0  0  0
    3.9580    1.9330   21.8300 C   0  0  0  0  0  0  0  0  0  0  0  0
    3.2730    2.5230   20.7730 C   0  0  0  0  0  0  0  0  0  0  0  0
    3.6650    2.3090   19.4840 C   0  0  0  0  0  0  0  0  0  0  0  0
    4.7750    1.4730   19.1970 C   0  0  0  0  0  0  0  0  0  0  0  0
    5.2370    1.2200   17.8810 C   0  0  0  0  0  0  0  0  0  0  0  0
    6.2810    0.4540   17.5920 N   0  0  0  0  0  0  0  0  0  0  0  0
    6.9350   -0.1140   18.6150 C   0  0  0  0  0  0  0  0  0  0  0  0
  2  1  1  0
  3  2  2  0
  4  2  1  0
  5  4  2  0
  6  5  1  0
  7  6  1  0
  8  7  1  0
  9  8  1  0
 10  9  2  0
 11  9  2  0
  9 12  1  6
 13 12  1  0
 14 12  1  0
 15 14  1  0
 16  6  2  0
 16  3  1  0
 17 16  1  0
 18 17  1  0
 18  8  1  0
 17 19  1  6
 20 19  2  0
 21 19  1  0
 22 21  1  0
 23 22  1  0
 24 23  2  0
 25 24  1  0
 26 25  2  0
 27 26  1  0
 28 27  2  0
 28 23  1  0
 29 28  1  0
 30 29  2  0
 31 30  1  0
 31 22  2  0
M  END
