
     RDKit          3D

 20 22  0  0  0  0  0  0  0  0999 V2000
    9.2940    0.9510   21.2390 O   0  0  0  0  0  0  0  0  0  0  0  0
    8.7760   -0.1140   21.5800 C   0  0  0  0  0  0  0  0  0  0  0  0
    7.6360   -0.6070   21.0340 N   0  0  0  0  0  0  0  0  0  0  0  0
    6.9000   -0.0850   19.9480 C   0  0  0  0  0  0  0  0  0  0  0  0
    5.7480    0.7200   20.2190 C   0  0  0  0  0  0  0  0  0  0  0  0
    5.2460    0.9680   21.5240 C   0  0  0  0  0  0  0  0  0  0  0  0
    4.1390    1.7460   21.7150 C   0  0  0  0  0  0  0  0  0  0  0  0
    3.4840    2.3240   20.6360 C   0  0  0  0  0  0  0  0  0  0  0  0
    3.9240    2.1120   19.3600 C   0  0  0  0  0  0  0  0  0  0  0  0
    5.0590    1.2970   19.1140 C   0  0  0  0  0  0  0  0  0  0  0  0
    5.5440    1.0110   17.8120 C   0  0  0  0  0  0  0  0  0  0  0  0
    6.6010    0.2520   17.5610 N   0  0  0  0  0  0  0  0  0  0  0  0
    7.2540   -0.2700   18.6110 C   0  0  0  0  0  0  0  0  0  0  0  0
    9.3890   -0.9880   22.6570 C   0  0  0  0  0  0  0  0  0  0  0  0
   10.8310   -0.6340   22.9370 C   0  0  2  0  0  0  0  0  0  0  0  0
   11.1550    0.3170   23.8990 C   0  0  0  0  0  0  0  0  0  0  0  0
   12.4630    0.7610   24.0460 C   0  0  0  0  0  0  0  0  0  0  0  0
   13.4630    0.2490   23.2420 C   0  0  0  0  0  0  0  0  0  0  0  0
   13.1610   -0.7250   22.3080 C   0  0  0  0  0  0  0  0  0  0  0  0
   11.8550   -1.1720   22.1670 C   0  0  0  0  0  0  0  0  0  0  0  0
  2  1  1  0
  3  2  1  0
  4  3  1  0
  5  4  1  0
  6  5  1  0
  7  6  1  0
  8  7  1  0
  9  8  1  0
 10  9  1  0
 10  5  1  0
 11 10  1  0
 12 11  1  0
 13 12  1  0
 13  4  1  0
 14  2  1  0
 15 14  1  6
 16 15  1  0
 17 16  1  0
 18 17  1  0
 19 18  1  0
 20 15  1  0
 20 19  1  0
M  END
$$$$
