
     RDKit          3D

 24 26  0  0  0  0  0  0  0  0999 V2000
   13.6390   -1.7980   21.7110 Cl  0  0  0  0  0  0  0  0  0  0  0  0
   12.4240   -0.8500   22.5010 C   0  0  0  0  0  0  0  0  0  0  0  0
   12.7820    0.2000   23.3340 C   0  0  0  0  0  0  0  0  0  0  0  0
   14.4420    0.6430   23.5470 Cl  0  0  0  0  0  0  0  0  0  0  0  0
   11.8040    0.9350   23.9750 C   0  0  0  0  0  0  0  0  0  0  0  0
   10.4720    0.6310   23.7730 C   0  0  0  0  0  0  0  0  0  0  0  0
   11.0870   -1.1470   22.2920 C   0  0  0  0  0  0  0  0  0  0  0  0
   10.0960   -0.4020   22.9260 C   0  0  0  0  0  0  0  0  0  0  0  0
    8.6250   -0.6940   22.6690 C   0  0  2  0  0  0  0  0  0  0  0  0
    8.2920   -2.1250   22.8310 N   0  0  0  0  0  0  0  0  0  0  0  0
    7.6600   -2.3490   24.1310 C   0  0  0  0  0  0  0  0  0  0  0  0
    8.1240    0.0310   21.3950 C   0  0  0  0  0  0  0  0  0  0  0  0
    8.6180    1.0980   21.0300 O   0  0  0  0  0  0  0  0  0  0  0  0
    7.0720   -0.5600   20.7860 N   0  0  0  0  0  0  0  0  0  0  0  0
    6.3080   -0.0430   19.7230 C   0  0  0  0  0  0  0  0  0  0  0  0
    5.2210    0.8340   20.0320 C   0  0  0  0  0  0  0  0  0  0  0  0
    4.7440    1.0710   21.3480 C   0  0  0  0  0  0  0  0  0  0  0  0
    3.7070    1.9330   21.5760 C   0  0  0  0  0  0  0  0  0  0  0  0
    3.0930    2.5970   20.5230 C   0  0  0  0  0  0  0  0  0  0  0  0
    3.5140    2.4010   19.2380 C   0  0  0  0  0  0  0  0  0  0  0  0
    4.5880    1.5170   18.9570 C   0  0  0  0  0  0  0  0  0  0  0  0
    5.0670    1.2680   17.6470 C   0  0  0  0  0  0  0  0  0  0  0  0
    6.0570    0.4330   17.3600 N   0  0  0  0  0  0  0  0  0  0  0  0
    6.6480   -0.2010   18.3810 C   0  0  0  0  0  0  0  0  0  0  0  0
  2  1  1  0
  3  2  2  0
  4  3  1  0
  5  3  1  0
  6  5  2  0
  7  2  1  0
  8  6  1  0
  8  7  2  0
  9  8  1  0
  9 10  1  6
 11 10  1  0
 12  9  1  0
 13 12  2  0
 14 12  1  0
 15 14  1  0
 16 15  1  0
 17 16  2  0
 18 17  1  0
 19 18  2  0
 20 19  1  0
 21 20  2  0
 21 16  1  0
 22 21  1  0
 23 22  2  0
 24 23  1  0
 24 15  2  0
M  END
