
     RDKit          3D

 23 25  0  0  0  0  0  0  0  0999 V2000
   12.5370    1.7870   26.1670 N   0  0  0  0  0  0  0  0  0  0  0  0
   12.2380    1.1310   25.2860 C   0  0  0  0  0  0  0  0  0  0  0  0
   11.9000    0.3080   24.1550 C   0  0  0  0  0  0  0  0  0  0  0  0
   12.9100   -0.1880   23.3360 C   0  0  0  0  0  0  0  0  0  0  0  0
   12.5610   -0.9440   22.2370 C   0  0  0  0  0  0  0  0  0  0  0  0
   13.8200   -1.5730   21.2080 Cl  0  0  0  0  0  0  0  0  0  0  0  0
   10.5640    0.0460   23.8600 C   0  0  0  0  0  0  0  0  0  0  0  0
   10.2290   -0.7070   22.7390 C   0  0  0  0  0  0  0  0  0  0  0  0
   11.2410   -1.2110   21.9280 C   0  0  0  0  0  0  0  0  0  0  0  0
    8.7780   -0.9680   22.4000 C   0  0  0  0  0  0  0  0  0  0  0  0
    8.2170   -0.0310   21.3480 C   0  0  1  0  0  0  0  0  0  0  0  0
    8.4200    1.1840   21.3820 O   0  0  0  0  0  0  0  0  0  0  0  0
    7.5650   -0.6580   20.3420 N   0  0  0  0  0  0  0  0  0  0  0  0
    6.5190   -0.2230   19.5020 C   0  0  1  0  0  0  0  0  0  0  0  0
    5.5480    0.7280   19.9570 C   0  0  2  0  0  0  0  0  0  0  0  0
    5.1440    0.8610   21.3120 C   0  0  0  0  0  0  0  0  0  0  0  0
    4.1260    1.7000   21.6660 C   0  0  0  0  0  0  0  0  0  0  0  0
    3.4690    2.4590   20.7080 C   0  0  0  0  0  0  0  0  0  0  0  0
    3.8130    2.3650   19.3910 C   0  0  0  0  0  0  0  0  0  0  0  0
    4.8470    1.4880   18.9760 C   0  0  2  0  0  0  0  0  0  0  0  0
    5.1440    1.2420   17.6180 C   0  0  0  0  0  0  0  0  0  0  0  0
    5.9940    0.3210   17.1960 N   0  0  0  0  0  0  0  0  0  0  0  0
    6.6360   -0.3960   18.1230 C   0  0  0  0  0  0  0  0  0  0  0  0
  2  1  1  0
  3  2  1  0
  4  3  1  0
  5  4  1  0
  6  5  1  0
  7  3  1  0
  8  7  1  0
  9  8  1  0
  9  5  1  0
 10  8  1  0
 11 10  1  0
 11 12  1  6
 13 11  1  0
 14 13  1  6
 15 14  1  0
 15 16  1  6
 17 16  1  0
 18 17  1  0
 19 18  1  0
 20 19  1  6
 20 15  1  0
 21 20  1  0
 22 21  1  0
 23 22  1  0
 23 14  1  0
M  END
$$$$
