
     RDKit          3D

 30 33  0  0  0  0  0  0  0  0999 V2000
   10.7190    3.1260   24.3960 O   0  0  0  0  0  0  0  0  0  0  0  0
   10.3770    1.9840   24.1520 C   0  0  0  0  0  0  0  0  0  0  0  0
    9.0840    1.5480   24.3620 N   0  0  0  0  0  0  0  0  0  0  0  0
    8.1760    2.3610   25.1500 C   0  0  0  0  0  0  0  0  0  0  0  0
    7.3080    3.3310   24.3650 C   0  0  0  0  0  0  0  0  0  0  0  0
    6.3200    3.8410   24.8910 O   0  0  0  0  0  0  0  0  0  0  0  0
    7.6580    3.5890   23.1090 N   0  0  0  0  0  0  0  0  0  0  0  0
    6.8660    4.4400   22.2410 C   0  0  0  0  0  0  0  0  0  0  0  0
   11.2900    1.0310   23.4920 C   0  0  0  0  0  0  0  0  0  0  0  0
   12.6370    1.3690   23.3310 C   0  0  0  0  0  0  0  0  0  0  0  0
   13.5040    0.5020   22.6900 C   0  0  0  0  0  0  0  0  0  0  0  0
   13.0200   -0.6980   22.2100 C   0  0  0  0  0  0  0  0  0  0  0  0
   14.0970   -1.7670   21.3540 Cl  0  0  0  0  0  0  0  0  0  0  0  0
   11.6900   -1.0510   22.3440 C   0  0  0  0  0  0  0  0  0  0  0  0
   10.8010   -0.1690   22.9590 C   0  0  0  0  0  0  0  0  0  0  0  0
    9.3130   -0.4530   22.9440 C   0  0  1  0  0  0  0  0  0  0  0  0
    8.6680    0.1530   24.1920 C   0  0  0  0  0  0  0  0  0  0  0  0
    8.7040    0.2110   21.7060 C   0  0  0  0  0  0  0  0  0  0  0  0
    9.1510    1.2610   21.2400 O   0  0  0  0  0  0  0  0  0  0  0  0
    7.6130   -0.4130   21.2000 N   0  0  0  0  0  0  0  0  0  0  0  0
    6.8140    0.0040   20.1070 C   0  0  0  0  0  0  0  0  0  0  0  0
    5.6940    0.8600   20.3580 C   0  0  0  0  0  0  0  0  0  0  0  0
    5.2210    1.1840   21.6580 C   0  0  0  0  0  0  0  0  0  0  0  0
    4.1290    1.9880   21.8290 C   0  0  0  0  0  0  0  0  0  0  0  0
    3.4630    2.5220   20.7330 C   0  0  0  0  0  0  0  0  0  0  0  0
    3.8780    2.2410   19.4620 C   0  0  0  0  0  0  0  0  0  0  0  0
    4.9940    1.3950   19.2380 C   0  0  0  0  0  0  0  0  0  0  0  0
    5.4390    1.0270   17.9450 C   0  0  0  0  0  0  0  0  0  0  0  0
    6.4640    0.2170   17.7130 N   0  0  0  0  0  0  0  0  0  0  0  0
    7.1180   -0.2750   18.7740 C   0  0  0  0  0  0  0  0  0  0  0  0
  2  1  2  0
  3  2  1  0
  4  3  1  0
  5  4  1  0
  6  5  2  0
  7  5  1  0
  8  7  1  0
  9  2  1  0
 10  9  2  0
 11 10  1  0
 12 11  2  0
 13 12  1  0
 14 12  1  0
 15 14  2  0
 15  9  1  0
 16 15  1  0
 17 16  1  0
 17  3  1  0
 16 18  1  6
 19 18  2  0
 20 18  1  0
 21 20  1  0
 22 21  1  0
 23 22  2  0
 24 23  1  0
 25 24  2  0
 26 25  1  0
 27 26  2  0
 27 22  1  0
 28 27  1  0
 29 28  2  0
 30 29  1  0
 30 21  2  0
M  END
