
     RDKit          3D

 25 28  0  0  0  0  0  0  0  0999 V2000
   13.8270   -1.7580   21.2870 Cl  0  0  0  0  0  0  0  0  0  0  0  0
   12.6020   -1.0040   22.2510 C   0  0  0  0  0  0  0  0  0  0  0  0
   12.9520   -0.0910   23.2230 C   0  0  0  0  0  0  0  0  0  0  0  0
   14.2630    0.1450   23.4590 F   0  0  0  0  0  0  0  0  0  0  0  0
   11.2680   -1.2600   22.0030 C   0  0  0  0  0  0  0  0  0  0  0  0
   10.2740   -0.5940   22.7170 C   0  0  0  0  0  0  0  0  0  0  0  0
   10.6700    0.3310   23.6930 C   0  0  0  0  0  0  0  0  0  0  0  0
   12.0070    0.5900   23.9480 C   0  0  0  0  0  0  0  0  0  0  0  0
    8.8070   -0.8830   22.4790 C   0  0  1  0  0  0  0  0  0  0  0  0
    8.0070   -0.5230   23.7380 C   0  0  0  0  0  0  0  0  0  0  0  0
    8.3700    0.8710   24.1890 C   0  0  0  0  0  0  0  0  0  0  0  0
    9.7800    1.0160   24.4890 O   0  0  0  0  0  0  0  0  0  0  0  0
    8.3290   -0.0560   21.2830 C   0  0  0  0  0  0  0  0  0  0  0  0
    8.8480    1.0150   20.9770 O   0  0  0  0  0  0  0  0  0  0  0  0
    7.2830   -0.5920   20.6210 N   0  0  0  0  0  0  0  0  0  0  0  0
    6.5090   -0.0100   19.6010 C   0  0  0  0  0  0  0  0  0  0  0  0
    5.4020    0.8180   19.9680 C   0  0  0  0  0  0  0  0  0  0  0  0
    4.9670    1.0080   21.3080 C   0  0  0  0  0  0  0  0  0  0  0  0
    3.8950    1.8090   21.5910 C   0  0  0  0  0  0  0  0  0  0  0  0
    3.2060    2.4590   20.5720 C   0  0  0  0  0  0  0  0  0  0  0  0
    3.5890    2.3100   19.2670 C   0  0  0  0  0  0  0  0  0  0  0  0
    4.6900    1.4830   18.9300 C   0  0  0  0  0  0  0  0  0  0  0  0
    5.1170    1.2660   17.5980 C   0  0  0  0  0  0  0  0  0  0  0  0
    6.1380    0.4920   17.2590 N   0  0  0  0  0  0  0  0  0  0  0  0
    6.8030   -0.1250   18.2440 C   0  0  0  0  0  0  0  0  0  0  0  0
  2  1  1  0
  3  2  2  0
  4  3  1  0
  5  2  1  0
  6  5  2  0
  7  6  1  0
  8  7  2  0
  8  3  1  0
  9  6  1  0
 10  9  1  0
 11 10  1  0
 12 11  1  0
 12  7  1  0
  9 13  1  6
 14 13  2  0
 15 13  1  0
 16 15  1  0
 17 16  1  0
 18 17  2  0
 19 18  1  0
 20 19  2  0
 21 20  1  0
 22 21  2  0
 22 17  1  0
 23 22  1  0
 24 23  2  0
 25 24  1  0
 25 16  2  0
M  END
