
     RDKit          3D

 33 37  0  0  0  0  0  0  0  0999 V2000
   14.0800   -1.5460   21.2640 Cl  0  0  0  0  0  0  0  0  0  0  0  0
   12.9410   -0.8290   22.3680 C   0  0  0  0  0  0  0  0  0  0  0  0
   11.6090   -1.1830   22.2820 C   0  0  0  0  0  0  0  0  0  0  0  0
   13.3780    0.1130   23.2670 C   0  0  0  0  0  0  0  0  0  0  0  0
   12.4600    0.7120   24.1080 C   0  0  0  0  0  0  0  0  0  0  0  0
   11.1020    0.4050   24.0340 C   0  0  0  0  0  0  0  0  0  0  0  0
   10.1520    1.1630   24.9420 C   0  0  0  0  0  0  0  0  0  0  0  0
    8.7390    0.8250   24.7260 N   0  0  0  0  0  0  0  0  0  0  0  0
    7.4720    1.7220   25.1130 S   0  0  2  0  0  0  0  0  0  0  0  0
    7.6450    2.1600   26.4530 O   0  0  0  0  0  0  0  0  0  0  0  0
    6.3080    1.0010   24.7280 O   0  0  0  0  0  0  0  0  0  0  0  0
    7.6140    3.0090   24.1790 N   0  0  0  0  0  0  0  0  0  0  0  0
    7.8380    4.4510   24.4660 C   0  0  0  0  0  0  0  0  0  0  0  0
    7.5280    3.2720   22.7160 C   0  0  0  0  0  0  0  0  0  0  0  0
    7.2590    4.7410   23.0720 C   0  0  1  0  0  0  0  0  0  0  0  0
    5.8410    4.8940   23.0640 O   0  0  0  0  0  0  0  0  0  0  0  0
    5.3220    5.3020   21.8110 C   0  0  0  0  0  0  0  0  0  0  0  0
   10.6720   -0.5460   23.0950 C   0  0  0  0  0  0  0  0  0  0  0  0
    9.1930   -0.8310   22.9330 C   0  0  1  0  0  0  0  0  0  0  0  0
    8.4580   -0.5370   24.2360 C   0  0  0  0  0  0  0  0  0  0  0  0
    8.6510   -0.0450   21.7360 C   0  0  0  0  0  0  0  0  0  0  0  0
    9.2680    0.8980   21.2390 O   0  0  0  0  0  0  0  0  0  0  0  0
    7.4680   -0.4980   21.2490 N   0  0  0  0  0  0  0  0  0  0  0  0
    6.7450   -0.0360   20.1290 C   0  0  0  0  0  0  0  0  0  0  0  0
    5.5610    0.7380   20.3410 C   0  0  0  0  0  0  0  0  0  0  0  0
    5.0100    1.0030   21.6200 C   0  0  0  0  0  0  0  0  0  0  0  0
    3.8980    1.7840   21.7590 C   0  0  0  0  0  0  0  0  0  0  0  0
    3.2760    2.3350   20.6470 C   0  0  0  0  0  0  0  0  0  0  0  0
    3.7540    2.0920   19.3910 C   0  0  0  0  0  0  0  0  0  0  0  0
    4.9020    1.2830   19.2010 C   0  0  0  0  0  0  0  0  0  0  0  0
    5.4410    0.9910   17.9240 C   0  0  0  0  0  0  0  0  0  0  0  0
    6.5230    0.2520   17.7250 N   0  0  0  0  0  0  0  0  0  0  0  0
    7.1490   -0.2340   18.8060 C   0  0  0  0  0  0  0  0  0  0  0  0
  2  1  1  0
  3  2  2  0
  4  2  1  0
  5  4  2  0
  6  5  1  0
  7  6  1  0
  8  7  1  0
  9  8  1  6
 10  9  2  0
 11  9  2  0
 12  9  1  0
 13 12  1  0
 14 12  1  0
 15 14  1  0
 15 13  1  0
 15 16  1  1
 17 16  1  0
 18  6  2  0
 18  3  1  0
 19 18  1  0
 20 19  1  0
 20  8  1  0
 19 21  1  6
 22 21  2  0
 23 21  1  0
 24 23  1  0
 25 24  1  0
 26 25  2  0
 27 26  1  0
 28 27  2  0
 29 28  1  0
 30 29  2  0
 30 25  1  0
 31 30  1  0
 32 31  2  0
 33 32  1  0
 33 24  2  0
M  END
