
     RDKit          3D

 24 26  0  0  0  0  0  0  0  0999 V2000
   13.9040   -1.4470   21.7000 Cl  0  0  0  0  0  0  0  0  0  0  0  0
   12.5850   -0.6680   22.5180 C   0  0  0  0  0  0  0  0  0  0  0  0
   12.8230    0.3430   23.4380 C   0  0  0  0  0  0  0  0  0  0  0  0
   14.4410    0.8350   23.8210 Cl  0  0  0  0  0  0  0  0  0  0  0  0
   11.7630    0.9430   24.0950 C   0  0  0  0  0  0  0  0  0  0  0  0
   10.4700    0.5320   23.8320 C   0  0  0  0  0  0  0  0  0  0  0  0
   11.2900   -1.0820   22.2500 C   0  0  0  0  0  0  0  0  0  0  0  0
   10.2190   -0.4740   22.9030 C   0  0  0  0  0  0  0  0  0  0  0  0
    8.8050   -0.8860   22.5810 C   0  0  1  0  0  0  0  0  0  0  0  0
    8.6960   -2.2060   22.2470 F   0  0  0  0  0  0  0  0  0  0  0  0
    8.0070   -0.7180   23.6760 F   0  0  0  0  0  0  0  0  0  0  0  0
    8.2560    0.0150   21.4440 C   0  0  0  0  0  0  0  0  0  0  0  0
    8.4890    1.2150   21.4240 O   0  0  0  0  0  0  0  0  0  0  0  0
    7.5870   -0.6160   20.4550 N   0  0  0  0  0  0  0  0  0  0  0  0
    6.5230   -0.2350   19.6030 C   0  0  0  0  0  0  0  0  0  0  0  0
    5.4820    0.6470   20.0480 C   0  0  0  0  0  0  0  0  0  0  0  0
    5.1060    0.8020   21.4080 C   0  0  0  0  0  0  0  0  0  0  0  0
    4.0080    1.5360   21.7580 C   0  0  0  0  0  0  0  0  0  0  0  0
    3.2370    2.1610   20.7910 C   0  0  0  0  0  0  0  0  0  0  0  0
    3.5610    2.0560   19.4690 C   0  0  0  0  0  0  0  0  0  0  0  0
    4.6800    1.2900   19.0600 C   0  0  0  0  0  0  0  0  0  0  0  0
    4.9790    1.0360   17.7020 C   0  0  0  0  0  0  0  0  0  0  0  0
    5.9220    0.2060   17.2920 N   0  0  0  0  0  0  0  0  0  0  0  0
    6.6440   -0.4200   18.2280 C   0  0  0  0  0  0  0  0  0  0  0  0
  2  1  1  0
  3  2  2  0
  4  3  1  0
  5  3  1  0
  6  5  2  0
  7  2  1  0
  8  6  1  0
  8  7  2  0
  9  8  1  0
  9 10  1  6
 11  9  1  0
 12  9  1  0
 13 12  2  0
 14 12  1  0
 15 14  1  0
 16 15  1  0
 17 16  2  0
 18 17  1  0
 19 18  2  0
 20 19  1  0
 21 20  2  0
 21 16  1  0
 22 21  1  0
 23 22  2  0
 24 23  1  0
 24 15  2  0
M  END
