
     RDKit          3D

 12 12  0  0  0  0  0  0  0  0999 V2000
    6.2080   -5.0310   19.6800 N   0  0  0  0  0  0  0  0  0  0  0  0
    7.1280   -4.1620   19.8980 C   0  0  0  0  0  0  0  0  0  0  0  0
    7.0210   -3.3860   21.1840 C   0  0  0  0  0  0  0  0  0  0  0  0
    8.1210   -2.6970   21.5370 N   0  0  0  0  0  0  0  0  0  0  0  0
    8.0340   -1.9990   22.6620 C   0  0  0  0  0  0  0  0  0  0  0  0
    9.1220   -1.3560   23.1370 O   0  0  0  0  0  0  0  0  0  0  0  0
   10.3300   -1.4090   22.3660 C   0  0  0  0  0  0  0  0  0  0  0  0
    6.8890   -1.9500   23.4430 C   0  0  0  0  0  0  0  0  0  0  0  0
    5.8660   -3.4500   21.8780 N   0  0  0  0  0  0  0  0  0  0  0  0
    5.8450   -2.7570   23.0140 C   0  0  0  0  0  0  0  0  0  0  0  0
    4.8520   -2.8940   23.9190 O   0  0  0  0  0  0  0  0  0  0  0  0
    3.7780   -3.7880   23.6140 C   0  0  0  0  0  0  0  0  0  0  0  0
  2  1  2  0
  3  2  1  0
  4  3  2  0
  5  4  1  0
  6  5  1  0
  7  6  1  0
  8  5  2  0
  9  3  1  0
 10  9  2  0
 10  8  1  0
 11 10  1  0
 12 11  1  0
M  END
