
     RDKit          3D

 26 29  0  0  0  0  0  0  0  0999 V2000
    6.1900    0.7220   25.3150 O   0  0  0  0  0  0  0  0  0  0  0  0
    6.4070    1.5670   24.4350 C   0  0  0  0  0  0  0  0  0  0  0  0
    7.5910    1.6030   23.6430 C   0  0  0  0  0  0  0  0  0  0  0  0
    5.4920    2.5580   24.1890 N   0  0  0  0  0  0  0  0  0  0  0  0
    5.6620    3.5700   23.2480 C   0  0  0  0  0  0  0  0  0  0  0  0
    6.8370    3.5990   22.4670 C   0  0  0  0  0  0  0  0  0  0  0  0
    6.9980    4.6040   21.5130 C   0  0  0  0  0  0  0  0  0  0  0  0
    6.0060    5.5550   21.3360 C   0  0  0  0  0  0  0  0  0  0  0  0
    4.8650    5.5340   22.1180 C   0  0  0  0  0  0  0  0  0  0  0  0
    4.6850    4.5500   23.0760 C   0  0  0  0  0  0  0  0  0  0  0  0
    7.8260    2.5510   22.6970 C   0  0  0  0  0  0  0  0  0  0  0  0
    9.0810    2.4650   21.9100 C   0  0  0  0  0  0  0  0  0  0  0  0
    9.0620    1.9950   20.7820 O   0  0  0  0  0  0  0  0  0  0  0  0
   10.2110    2.9040   22.4730 N   0  0  0  0  0  0  0  0  0  0  0  0
   10.5250    3.8060   23.5850 C   0  0  0  0  0  0  0  0  0  0  0  0
   11.4430    3.2140   21.7420 C   0  0  0  0  0  0  0  0  0  0  0  0
   11.8790    4.1130   22.9120 C   0  0  1  0  0  0  0  0  0  0  0  0
   12.1290    5.5060   22.6020 N   0  0  0  0  0  0  0  0  0  0  0  0
   11.8650    6.5090   23.4870 C   0  0  0  0  0  0  0  0  0  0  0  0
   10.9190    7.4670   23.1240 C   0  0  0  0  0  0  0  0  0  0  0  0
   10.2250    7.1710   21.9840 O   0  0  0  0  0  0  0  0  0  0  0  0
    8.9380    7.7550   21.8190 C   0  0  0  0  0  0  0  0  0  0  0  0
   12.5540    6.6460   24.6900 C   0  0  0  0  0  0  0  0  0  0  0  0
   12.3320    7.7580   25.4820 C   0  0  0  0  0  0  0  0  0  0  0  0
   11.4340    8.7290   25.0860 C   0  0  0  0  0  0  0  0  0  0  0  0
   10.7080    8.5860   23.9160 C   0  0  0  0  0  0  0  0  0  0  0  0
  2  1  2  0
  3  2  1  0
  4  2  1  0
  5  4  1  0
  6  5  2  0
  7  6  1  0
  8  7  2  0
  9  8  1  0
 10  9  2  0
 10  5  1  0
 11  6  1  0
 11  3  2  0
 12 11  1  0
 13 12  2  0
 14 12  1  0
 15 14  1  0
 16 14  1  0
 17 15  1  0
 17 16  1  0
 17 18  1  6
 19 18  1  0
 20 19  2  0
 21 20  1  0
 22 21  1  0
 23 19  1  0
 24 23  2  0
 25 24  1  0
 26 25  2  0
 26 20  1  0
M  END
