
     RDKit          3D

 24 27  0  0  0  0  0  0  0  0999 V2000
    9.1740    1.0110   20.9090 O   0  0  0  0  0  0  0  0  0  0  0  0
    8.6640   -0.0290   21.3290 C   0  0  0  0  0  0  0  0  0  0  0  0
    9.2350   -0.7970   22.5250 C   0  0  2  0  0  0  0  0  0  0  0  0
    8.4450   -0.3780   23.7720 C   0  0  0  0  0  0  0  0  0  0  0  0
    8.7470    1.0140   24.1210 N   0  0  0  0  0  0  0  0  0  0  0  0
   10.1360    1.1780   24.5440 C   0  0  0  0  0  0  0  0  0  0  0  0
   10.7130   -0.5130   22.7310 C   0  0  0  0  0  0  0  0  0  0  0  0
   11.1200    0.4790   23.6390 C   0  0  0  0  0  0  0  0  0  0  0  0
   12.4740    0.7910   23.7440 C   0  0  0  0  0  0  0  0  0  0  0  0
   13.4190    0.1370   22.9790 C   0  0  0  0  0  0  0  0  0  0  0  0
   11.6770   -1.1960   21.9860 C   0  0  0  0  0  0  0  0  0  0  0  0
   13.0070   -0.8430   22.1020 C   0  0  0  0  0  0  0  0  0  0  0  0
   14.1670   -1.5460   21.0110 Cl  0  0  0  0  0  0  0  0  0  0  0  0
    7.5270   -0.5520   20.8090 N   0  0  0  0  0  0  0  0  0  0  0  0
    6.7440   -0.0260   19.7590 C   0  0  0  0  0  0  0  0  0  0  0  0
    5.6110    0.7870   20.0800 C   0  0  0  0  0  0  0  0  0  0  0  0
    5.1680    1.0370   21.4040 C   0  0  0  0  0  0  0  0  0  0  0  0
    4.1250    1.8860   21.6490 C   0  0  0  0  0  0  0  0  0  0  0  0
    3.4680    2.5200   20.6050 C   0  0  0  0  0  0  0  0  0  0  0  0
    3.8530    2.3110   19.3130 C   0  0  0  0  0  0  0  0  0  0  0  0
    4.9310    1.4410   19.0150 C   0  0  0  0  0  0  0  0  0  0  0  0
    5.4060    1.2240   17.6990 C   0  0  0  0  0  0  0  0  0  0  0  0
    6.4430    0.4580   17.3990 N   0  0  0  0  0  0  0  0  0  0  0  0
    7.0830   -0.1420   18.4100 C   0  0  0  0  0  0  0  0  0  0  0  0
  2  1  2  0
  3  2  1  6
  4  3  1  0
  5  4  1  0
  6  5  1  0
  7  3  1  0
  8  7  2  0
  8  6  1  0
  9  8  1  0
 10  9  2  0
 11  7  1  0
 12 11  2  0
 12 10  1  0
 13 12  1  0
 14  2  1  0
 15 14  1  0
 16 15  1  0
 17 16  2  0
 18 17  1  0
 19 18  2  0
 20 19  1  0
 21 20  2  0
 21 16  1  0
 22 21  1  0
 23 22  2  0
 24 23  1  0
 24 15  2  0
M  END
