
     RDKit          3D

 25 28  0  0  0  0  0  0  0  0999 V2000
    9.1720    1.2840   21.0240 O   0  0  0  0  0  0  0  0  0  0  0  0
    8.6720    0.2590   21.4880 C   0  0  0  0  0  0  0  0  0  0  0  0
    9.2930   -0.4590   22.6850 C   0  0  1  0  0  0  0  0  0  0  0  0
   10.7950   -0.3150   22.8210 C   0  0  0  0  0  0  0  0  0  0  0  0
   11.6680   -1.0980   22.0670 C   0  0  0  0  0  0  0  0  0  0  0  0
   13.0260   -0.8500   22.1090 C   0  0  0  0  0  0  0  0  0  0  0  0
   14.0670   -1.6630   20.9720 Cl  0  0  0  0  0  0  0  0  0  0  0  0
   13.5590    0.1180   22.9340 C   0  0  0  0  0  0  0  0  0  0  0  0
   12.7120    0.8890   23.7090 C   0  0  0  0  0  0  0  0  0  0  0  0
   11.3430    0.6720   23.6480 C   0  0  0  0  0  0  0  0  0  0  0  0
   10.5740    1.4480   24.4820 O   0  0  0  0  0  0  0  0  0  0  0  0
    9.1490    1.4550   24.2810 C   0  0  0  0  0  0  0  0  0  0  0  0
    8.5890    0.0860   23.9510 C   0  0  2  0  0  0  0  0  0  0  0  0
    8.7320   -0.8670   25.1380 C   0  0  0  0  0  0  0  0  0  0  0  0
    7.5500   -0.3180   20.9960 N   0  0  0  0  0  0  0  0  0  0  0  0
    6.7660    0.1160   19.9040 C   0  0  0  0  0  0  0  0  0  0  0  0
    5.5940    0.8910   20.1680 C   0  0  0  0  0  0  0  0  0  0  0  0
    5.1100    1.1750   21.4720 C   0  0  0  0  0  0  0  0  0  0  0  0
    4.0080    1.9610   21.6580 C   0  0  0  0  0  0  0  0  0  0  0  0
    3.3310    2.4980   20.5720 C   0  0  0  0  0  0  0  0  0  0  0  0
    3.7530    2.2480   19.2970 C   0  0  0  0  0  0  0  0  0  0  0  0
    4.8920    1.4400   19.0600 C   0  0  0  0  0  0  0  0  0  0  0  0
    5.3910    1.1680   17.7640 C   0  0  0  0  0  0  0  0  0  0  0  0
    6.4720    0.4410   17.5190 N   0  0  0  0  0  0  0  0  0  0  0  0
    7.1260   -0.0690   18.5700 C   0  0  0  0  0  0  0  0  0  0  0  0
  2  1  2  0
  3  2  1  6
  4  3  1  0
  5  4  2  0
  6  5  1  0
  7  6  1  0
  8  6  2  0
  9  8  1  0
 10  4  1  0
 10  9  2  0
 11 10  1  0
 12 11  1  0
 13 12  1  0
 13  3  1  0
 13 14  1  1
 15  2  1  0
 16 15  1  0
 17 16  1  0
 18 17  2  0
 19 18  1  0
 20 19  2  0
 21 20  1  0
 22 21  2  0
 22 17  1  0
 23 22  1  0
 24 23  2  0
 25 24  1  0
 25 16  2  0
M  END
