
     RDKit          3D

 27 31  0  0  0  0  0  0  0  0999 V2000
    8.9090    1.0920   21.1050 O   0  0  0  0  0  0  0  0  0  0  0  0
    8.4160    0.0520   21.4960 C   0  0  0  0  0  0  0  0  0  0  0  0
    8.8090   -0.7190   22.7560 C   0  0  2  0  0  0  0  0  0  0  0  0
    8.0890   -0.0540   23.9540 C   0  0  0  0  0  0  0  0  0  0  0  0
    8.8830    1.1080   24.5120 C   0  0  0  0  0  0  0  0  0  0  0  0
   10.1830    0.6810   24.9430 O   0  0  0  0  0  0  0  0  0  0  0  0
   10.3320   -0.7190   22.9500 C   0  0  0  0  0  0  0  0  0  0  0  0
   10.9170    0.0080   23.9970 C   0  0  0  0  0  0  0  0  0  0  0  0
   12.2920    0.0890   24.1460 C   0  0  0  0  0  0  0  0  0  0  0  0
   13.1120   -0.5550   23.2400 C   0  0  0  0  0  0  0  0  0  0  0  0
   11.1750   -1.3850   22.0600 C   0  0  0  0  0  0  0  0  0  0  0  0
   12.5470   -1.2790   22.2140 C   0  0  0  0  0  0  0  0  0  0  0  0
   13.5910   -2.0750   21.0710 Cl  0  0  0  0  0  0  0  0  0  0  0  0
    7.3810   -0.6550   20.8690 N   0  0  0  0  0  0  0  0  0  0  0  0
    7.1440   -1.8990   21.4570 C   0  0  0  0  0  0  0  0  0  0  0  0
    6.2030   -2.6280   21.1740 O   0  0  0  0  0  0  0  0  0  0  0  0
    8.2030   -2.1170   22.5030 C   0  0  0  0  0  0  0  0  0  0  0  0
    6.5740   -0.1110   19.8070 C   0  0  0  0  0  0  0  0  0  0  0  0
    5.5380    0.8120   20.1270 C   0  0  0  0  0  0  0  0  0  0  0  0
    5.0540    1.0550   21.4390 C   0  0  0  0  0  0  0  0  0  0  0  0
    4.0640    1.9700   21.6680 C   0  0  0  0  0  0  0  0  0  0  0  0
    3.5050    2.6850   20.6170 C   0  0  0  0  0  0  0  0  0  0  0  0
    3.9270    2.4790   19.3350 C   0  0  0  0  0  0  0  0  0  0  0  0
    4.9500    1.5380   19.0530 C   0  0  0  0  0  0  0  0  0  0  0  0
    5.4270    1.2770   17.7440 C   0  0  0  0  0  0  0  0  0  0  0  0
    6.3930    0.4120   17.4570 N   0  0  0  0  0  0  0  0  0  0  0  0
    6.9480   -0.2570   18.4750 C   0  0  0  0  0  0  0  0  0  0  0  0
  2  1  2  0
  3  2  1  0
  3  4  1  1
  5  4  1  0
  6  5  1  0
  7  3  1  0
  8  7  2  0
  8  6  1  0
  9  8  1  0
 10  9  2  0
 11  7  1  0
 12 11  2  0
 12 10  1  0
 13 12  1  0
 14  2  1  0
 15 14  1  0
 16 15  2  0
 17 15  1  0
 17  3  1  0
 18 14  1  0
 19 18  1  0
 20 19  2  0
 21 20  1  0
 22 21  2  0
 23 22  1  0
 24 23  2  0
 24 19  1  0
 25 24  1  0
 26 25  2  0
 27 26  1  0
 27 18  2  0
M  END
