
     RDKit          3D

 24 27  0  0  0  0  0  0  0  0999 V2000
    9.3070    1.1330   21.0940 O   0  0  0  0  0  0  0  0  0  0  0  0
    8.8240    0.1930   21.6960 C   0  0  0  0  0  0  0  0  0  0  0  0
    9.4460   -0.2910   23.0030 C   0  0  2  0  0  0  0  0  0  0  0  0
   10.9540   -0.0900   23.0080 C   0  0  0  0  0  0  0  0  0  0  0  0
   11.5460    0.8090   23.8870 C   0  0  0  0  0  0  0  0  0  0  0  0
   12.9200    1.0080   23.8780 C   0  0  0  0  0  0  0  0  0  0  0  0
   13.7210    0.3240   22.9770 C   0  0  0  0  0  0  0  0  0  0  0  0
   11.7620   -0.7990   22.1230 C   0  0  0  0  0  0  0  0  0  0  0  0
   13.1270   -0.5710   22.1130 C   0  0  0  0  0  0  0  0  0  0  0  0
   14.1140   -1.4130   20.9500 Cl  0  0  0  0  0  0  0  0  0  0  0  0
    7.6850   -0.4400   21.2600 N   0  0  0  0  0  0  0  0  0  0  0  0
    7.1930   -1.7470   21.7380 C   0  0  0  0  0  0  0  0  0  0  0  0
    7.5860   -1.9830   23.1770 C   0  0  0  0  0  0  0  0  0  0  0  0
    9.0780   -1.7420   23.3650 C   0  0  0  0  0  0  0  0  0  0  0  0
    6.8920    0.1130   20.2000 C   0  0  0  0  0  0  0  0  0  0  0  0
    5.7280    0.9080   20.4380 C   0  0  0  0  0  0  0  0  0  0  0  0
    5.2610    1.2690   21.7330 C   0  0  0  0  0  0  0  0  0  0  0  0
    4.1440    2.0390   21.8880 C   0  0  0  0  0  0  0  0  0  0  0  0
    3.4400    2.4980   20.7800 C   0  0  0  0  0  0  0  0  0  0  0  0
    3.8420    2.1730   19.5140 C   0  0  0  0  0  0  0  0  0  0  0  0
    4.9910    1.3670   19.3070 C   0  0  0  0  0  0  0  0  0  0  0  0
    5.4560    0.9980   18.0200 C   0  0  0  0  0  0  0  0  0  0  0  0
    6.5370    0.2610   17.8040 N   0  0  0  0  0  0  0  0  0  0  0  0
    7.2250   -0.1580   18.8770 C   0  0  0  0  0  0  0  0  0  0  0  0
  2  1  1  0
  3  2  1  0
  3  4  1  6
  5  4  1  0
  6  5  1  0
  7  6  1  0
  8  4  1  0
  9  8  1  0
  9  7  1  0
 10  9  1  0
 11  2  1  0
 12 11  1  0
 13 12  1  0
 14 13  1  0
 14  3  1  0
 15 11  1  0
 16 15  1  0
 17 16  1  0
 18 17  1  0
 19 18  1  0
 20 19  1  0
 21 20  1  0
 21 16  1  0
 22 21  1  0
 23 22  1  0
 24 23  1  0
 24 15  1  0
M  END
$$$$
