
     RDKit          3D

 27 30  0  0  0  0  0  0  0  0999 V2000
    9.1360    1.2460   20.9970 O   0  0  0  0  0  0  0  0  0  0  0  0
    8.6260    0.2270   21.4530 C   0  0  0  0  0  0  0  0  0  0  0  0
    9.1590   -0.4520   22.7640 C   0  0  1  0  0  0  0  0  0  0  0  0
   10.6550   -0.3070   22.9440 C   0  0  0  0  0  0  0  0  0  0  0  0
   11.5410   -0.9850   22.1120 C   0  0  0  0  0  0  0  0  0  0  0  0
   12.9030   -0.8180   22.2700 C   0  0  0  0  0  0  0  0  0  0  0  0
   13.9970   -1.5370   21.1330 Cl  0  0  0  0  0  0  0  0  0  0  0  0
   13.3840    0.0060   23.2670 C   0  0  0  0  0  0  0  0  0  0  0  0
   14.7200    0.1630   23.4030 F   0  0  0  0  0  0  0  0  0  0  0  0
   12.5450    0.6970   24.1050 C   0  0  0  0  0  0  0  0  0  0  0  0
   11.1830    0.5360   23.9340 C   0  0  0  0  0  0  0  0  0  0  0  0
   10.3920    1.2370   24.8100 O   0  0  0  0  0  0  0  0  0  0  0  0
    9.0630    1.5070   24.3320 C   0  0  0  0  0  0  0  0  0  0  0  0
    8.3720    0.2330   23.8950 C   0  0  0  0  0  0  0  0  0  0  0  0
    8.8230   -1.8360   22.5710 O   0  0  0  0  0  0  0  0  0  0  0  0
    8.9790   -2.7050   23.6990 C   0  0  0  0  0  0  0  0  0  0  0  0
    7.5390   -0.3670   20.9140 N   0  0  0  0  0  0  0  0  0  0  0  0
    6.7760    0.0850   19.8150 C   0  0  0  0  0  0  0  0  0  0  0  0
    5.6330    0.9100   20.0690 C   0  0  0  0  0  0  0  0  0  0  0  0
    5.1880    1.2620   21.3700 C   0  0  0  0  0  0  0  0  0  0  0  0
    4.1100    2.0840   21.5450 C   0  0  0  0  0  0  0  0  0  0  0  0
    3.4230    2.5930   20.4530 C   0  0  0  0  0  0  0  0  0  0  0  0
    3.8100    2.2810   19.1820 C   0  0  0  0  0  0  0  0  0  0  0  0
    4.9240    1.4330   18.9530 C   0  0  0  0  0  0  0  0  0  0  0  0
    5.3890    1.0970   17.6590 C   0  0  0  0  0  0  0  0  0  0  0  0
    6.4410    0.3270   17.4220 N   0  0  0  0  0  0  0  0  0  0  0  0
    7.1040   -0.1590   18.4810 C   0  0  0  0  0  0  0  0  0  0  0  0
  2  1  2  0
  3  2  1  0
  4  3  1  0
  5  4  2  0
  6  5  1  0
  7  6  1  0
  8  6  2  0
  9  8  1  0
 10  8  1  0
 11  4  1  0
 11 10  2  0
 12 11  1  0
 13 12  1  0
 14 13  1  0
 14  3  1  0
  3 15  1  6
 16 15  1  0
 17  2  1  0
 18 17  1  0
 19 18  1  0
 20 19  2  0
 21 20  1  0
 22 21  2  0
 23 22  1  0
 24 23  2  0
 24 19  1  0
 25 24  1  0
 26 25  2  0
 27 26  1  0
 27 18  2  0
M  END
