
     RDKit          3D

 33 37  0  0  0  0  0  0  0  0999 V2000
   14.0710   -1.5480   21.4150 Cl  0  0  0  0  0  0  0  0  0  0  0  0
   12.8770   -0.7130   22.3720 C   0  0  0  0  0  0  0  0  0  0  0  0
   11.5560   -1.1210   22.3110 C   0  0  0  0  0  0  0  0  0  0  0  0
   13.2750    0.3250   23.1790 C   0  0  0  0  0  0  0  0  0  0  0  0
   12.3400    0.9370   23.9920 C   0  0  0  0  0  0  0  0  0  0  0  0
   11.0040    0.5420   23.9780 C   0  0  0  0  0  0  0  0  0  0  0  0
   10.0600    1.1810   24.9670 C   0  0  0  0  0  0  0  0  0  0  0  0
    8.6720    0.9980   24.5300 N   0  0  0  0  0  0  0  0  0  0  0  0
    7.6090    2.2130   24.7490 S   0  0  2  0  0  0  0  0  0  0  0  0
    8.2130    3.1470   25.6480 O   0  0  0  0  0  0  0  0  0  0  0  0
    6.3570    1.6190   25.1020 O   0  0  0  0  0  0  0  0  0  0  0  0
    7.4460    3.0070   23.1600 C   0  0  0  0  0  0  0  0  0  0  0  0
    6.8050    4.4060   23.1620 C   0  0  2  0  0  0  0  0  0  0  0  0
    5.3890    4.5860   23.5920 C   0  0  0  0  0  0  0  0  0  0  0  0
    5.7820    4.7850   22.1460 C   0  0  0  0  0  0  0  0  0  0  0  0
    7.7040    5.4210   23.6510 O   0  0  0  0  0  0  0  0  0  0  0  0
    8.2600    6.3770   22.7360 C   0  0  0  0  0  0  0  0  0  0  0  0
   10.5970   -0.4720   23.0940 C   0  0  0  0  0  0  0  0  0  0  0  0
    9.1180   -0.7850   22.9110 C   0  0  1  0  0  0  0  0  0  0  0  0
    8.3160   -0.3820   24.1520 C   0  0  0  0  0  0  0  0  0  0  0  0
    8.5660   -0.0560   21.6820 C   0  0  0  0  0  0  0  0  0  0  0  0
    9.1040    0.9530   21.2260 O   0  0  0  0  0  0  0  0  0  0  0  0
    7.4270   -0.5900   21.1630 N   0  0  0  0  0  0  0  0  0  0  0  0
    6.6770   -0.1180   20.0560 C   0  0  0  0  0  0  0  0  0  0  0  0
    5.5040    0.6750   20.2940 C   0  0  0  0  0  0  0  0  0  0  0  0
    4.9600    0.9150   21.5840 C   0  0  0  0  0  0  0  0  0  0  0  0
    3.8680    1.7210   21.7490 C   0  0  0  0  0  0  0  0  0  0  0  0
    3.2610    2.3280   20.6530 C   0  0  0  0  0  0  0  0  0  0  0  0
    3.7330    2.1110   19.3900 C   0  0  0  0  0  0  0  0  0  0  0  0
    4.8590    1.2760   19.1730 C   0  0  0  0  0  0  0  0  0  0  0  0
    5.3970    1.0220   17.8870 C   0  0  0  0  0  0  0  0  0  0  0  0
    6.4650    0.2670   17.6610 N   0  0  0  0  0  0  0  0  0  0  0  0
    7.0770   -0.2760   18.7260 C   0  0  0  0  0  0  0  0  0  0  0  0
  2  1  1  0
  3  2  2  0
  4  2  1  0
  5  4  2  0
  6  5  1  0
  7  6  1  0
  8  7  1  0
  9  8  1  0
 10  9  2  0
 11  9  2  0
  9 12  1  6
 13 12  1  6
 14 13  1  0
 15 14  1  0
 15 13  1  0
 16 13  1  0
 17 16  1  0
 18  6  2  0
 18  3  1  0
 19 18  1  0
 20 19  1  0
 20  8  1  0
 19 21  1  6
 22 21  2  0
 23 21  1  0
 24 23  1  0
 25 24  1  0
 26 25  2  0
 27 26  1  0
 28 27  2  0
 29 28  1  0
 30 29  2  0
 30 25  1  0
 31 30  1  0
 32 31  2  0
 33 32  1  0
 33 24  2  0
M  END
> <BADATOMS>
14;9;12;16;11;15;8;13;10
> <BADCOMMENTS>
Weak Density;Weak Density;Weak Density;Weak Density;Weak Density;Weak Density;Weak Density;Weak Density;Weak Density