
     RDKit          3D

 24 27  0  0  0  0  0  0  0  0999 V2000
    9.0280    0.7980   20.9080 O   0  0  0  0  0  0  0  0  0  0  0  0
    8.4620   -0.2510   21.2270 C   0  0  0  0  0  0  0  0  0  0  0  0
    9.0740   -1.2360   22.2870 C   0  0  2  0  0  0  0  0  0  0  0  0
    8.2000   -1.1900   23.4720 N   0  0  0  0  0  0  0  0  0  0  0  0
    8.1390    0.1640   24.0440 C   0  0  0  0  0  0  0  0  0  0  0  0
    9.4780    0.5500   24.6350 C   0  0  0  0  0  0  0  0  0  0  0  0
   10.4550   -0.7570   22.6850 C   0  0  0  0  0  0  0  0  0  0  0  0
   10.6310    0.1380   23.7480 C   0  0  0  0  0  0  0  0  0  0  0  0
   11.9210    0.5700   24.0570 C   0  0  0  0  0  0  0  0  0  0  0  0
   13.0170    0.1030   23.3560 C   0  0  0  0  0  0  0  0  0  0  0  0
   11.5620   -1.2380   21.9900 C   0  0  0  0  0  0  0  0  0  0  0  0
   12.8220   -0.8020   22.3380 C   0  0  0  0  0  0  0  0  0  0  0  0
   14.1930   -1.4230   21.4670 Cl  0  0  0  0  0  0  0  0  0  0  0  0
    7.2700   -0.6480   20.7270 N   0  0  0  0  0  0  0  0  0  0  0  0
    6.4800   -0.0020   19.7580 C   0  0  0  0  0  0  0  0  0  0  0  0
    5.4020    0.8280   20.1920 C   0  0  0  0  0  0  0  0  0  0  0  0
    5.0270    0.9870   21.5550 C   0  0  0  0  0  0  0  0  0  0  0  0
    3.9890    1.8050   21.9070 C   0  0  0  0  0  0  0  0  0  0  0  0
    3.2780    2.5030   20.9400 C   0  0  0  0  0  0  0  0  0  0  0  0
    3.6010    2.3870   19.6180 C   0  0  0  0  0  0  0  0  0  0  0  0
    4.6660    1.5430   19.2100 C   0  0  0  0  0  0  0  0  0  0  0  0
    5.0430    1.3700   17.8550 C   0  0  0  0  0  0  0  0  0  0  0  0
    6.0360    0.5900   17.4490 N   0  0  0  0  0  0  0  0  0  0  0  0
    6.7250   -0.0710   18.3860 C   0  0  0  0  0  0  0  0  0  0  0  0
  2  1  2  0
  3  2  1  6
  4  3  1  0
  5  4  1  0
  6  5  1  0
  7  3  1  0
  8  7  2  0
  8  6  1  0
  9  8  1  0
 10  9  2  0
 11  7  1  0
 12 11  2  0
 12 10  1  0
 13 12  1  0
 14  2  1  0
 15 14  1  0
 16 15  1  0
 17 16  2  0
 18 17  1  0
 19 18  2  0
 20 19  1  0
 21 20  2  0
 21 16  1  0
 22 21  1  0
 23 22  2  0
 24 23  1  0
 24 15  2  0
M  END
