
     RDKit          3D

 29 31  0  0  0  0  0  0  0  0999 V2000
   13.5520   -1.6650   21.8500 Cl  0  0  0  0  0  0  0  0  0  0  0  0
   12.2780   -0.7860   22.6270 C   0  0  0  0  0  0  0  0  0  0  0  0
   12.5610    0.2780   23.4660 C   0  0  0  0  0  0  0  0  0  0  0  0
   14.1870    0.7940   23.7410 Cl  0  0  0  0  0  0  0  0  0  0  0  0
   11.5350    0.9790   24.0590 C   0  0  0  0  0  0  0  0  0  0  0  0
   10.2260    0.6210   23.8130 C   0  0  0  0  0  0  0  0  0  0  0  0
   10.9680   -1.1450   22.3670 C   0  0  0  0  0  0  0  0  0  0  0  0
    9.9250   -0.4360   22.9610 C   0  0  0  0  0  0  0  0  0  0  0  0
    8.4580   -0.8050   22.6880 C   0  0  1  0  0  0  0  0  0  0  0  0
    8.3820   -2.2830   22.2860 C   0  0  0  0  0  0  0  0  0  0  0  0
    7.6790   -0.6330   23.9250 N   0  0  0  0  0  0  0  0  0  0  0  0
    7.0120    0.4210   24.4260 C   0  0  0  0  0  0  0  0  0  0  0  0
    7.0370    1.5450   23.9330 O   0  0  0  0  0  0  0  0  0  0  0  0
    6.2120    0.1810   25.6860 C   0  0  0  0  0  0  0  0  0  0  0  0
    5.8320   -1.1820   25.6660 O   0  0  0  0  0  0  0  0  0  0  0  0
    5.3500   -1.6390   26.9220 C   0  0  0  0  0  0  0  0  0  0  0  0
    7.9430    0.1480   21.5560 C   0  0  0  0  0  0  0  0  0  0  0  0
    8.1570    1.3530   21.5860 O   0  0  0  0  0  0  0  0  0  0  0  0
    7.3430   -0.4460   20.5030 N   0  0  0  0  0  0  0  0  0  0  0  0
    6.3860    0.0140   19.5690 C   0  0  0  0  0  0  0  0  0  0  0  0
    5.3990    0.9930   19.9330 C   0  0  0  0  0  0  0  0  0  0  0  0
    4.9470    1.2060   21.2620 C   0  0  0  0  0  0  0  0  0  0  0  0
    3.9080    2.0520   21.5270 C   0  0  0  0  0  0  0  0  0  0  0  0
    3.2620    2.7210   20.5020 C   0  0  0  0  0  0  0  0  0  0  0  0
    3.6600    2.5590   19.2090 C   0  0  0  0  0  0  0  0  0  0  0  0
    4.7360    1.6940   18.8870 C   0  0  0  0  0  0  0  0  0  0  0  0
    5.1150    1.4050   17.5580 C   0  0  0  0  0  0  0  0  0  0  0  0
    6.0040    0.4880   17.2210 N   0  0  0  0  0  0  0  0  0  0  0  0
    6.5880   -0.1980   18.2090 C   0  0  0  0  0  0  0  0  0  0  0  0
  2  1  1  0
  3  2  2  0
  4  3  1  0
  5  3  1  0
  6  5  2  0
  7  2  1  0
  8  6  1  0
  8  7  2  0
  9  8  1  0
  9 10  1  6
 11  9  1  0
 12 11  1  0
 13 12  2  0
 14 12  1  0
 15 14  1  0
 16 15  1  0
 17  9  1  0
 18 17  2  0
 19 17  1  0
 20 19  1  0
 21 20  1  0
 22 21  2  0
 23 22  1  0
 24 23  2  0
 25 24  1  0
 26 25  2  0
 26 21  1  0
 27 26  1  0
 28 27  2  0
 29 28  1  0
 29 20  2  0
M  END
