
     RDKit          3D

 16 17  0  0  0  0  0  0  0  0999 V2000
    6.6950   -3.4370   19.9690 C   0  0  0  0  0  0  0  0  0  0  0  0
    7.3310   -2.6630   18.8460 C   0  0  0  0  0  0  0  0  0  0  0  0
    6.4490   -3.7840   22.4030 C   0  0  0  0  0  0  0  0  0  0  0  0
    7.5570   -4.3740   23.2420 C   0  0  0  0  0  0  0  0  0  0  0  0
    8.4720   -2.2020   22.9890 C   0  0  1  0  0  0  0  0  0  0  0  0
    9.7550   -1.4400   23.2260 C   0  0  0  0  0  0  0  0  0  0  0  0
    9.8900   -0.6700   24.3680 C   0  0  0  0  0  0  0  0  0  0  0  0
   11.0440    0.0420   24.6150 C   0  0  0  0  0  0  0  0  0  0  0  0
   12.0520   -0.0310   23.7050 C   0  0  0  0  0  0  0  0  0  0  0  0
   11.9720   -0.7740   22.5610 C   0  0  0  0  0  0  0  0  0  0  0  0
   10.8120   -1.4860   22.3290 C   0  0  0  0  0  0  0  0  0  0  0  0
    7.8700   -1.9670   21.6100 C   0  0  0  0  0  0  0  0  0  0  0  0
   13.1880    0.6720   23.9560 F   0  0  0  0  0  0  0  0  0  0  0  0
    7.0080   -3.0850   21.2350 N   0  0  0  0  0  0  0  0  0  0  0  0
    5.9240   -4.3540   19.7160 O   0  0  0  0  0  0  0  0  0  0  0  0
    8.7510   -3.5820   23.1840 O   0  0  0  0  0  0  0  0  0  0  0  0
  2  1  1  0
  4  3  1  0
  5  6  1  6
  7  6  2  0
  8  7  1  0
  9  8  2  0
 10  9  1  0
 11  6  1  0
 11 10  2  0
 12  5  1  0
 13  9  1  0
 14 12  1  0
 14  1  1  0
 14  3  1  0
 15  1  2  0
 16  5  1  0
 16  4  1  0
M  END
