
     RDKit          3D

 25 28  0  0  0  0  0  0  0  0999 V2000
   14.0430   -1.5380   21.1220 Cl  0  0  0  0  0  0  0  0  0  0  0  0
   12.9160   -0.7620   22.2020 C   0  0  0  0  0  0  0  0  0  0  0  0
   13.3950    0.1460   23.1370 C   0  0  0  0  0  0  0  0  0  0  0  0
   12.5010    0.8410   23.9330 C   0  0  0  0  0  0  0  0  0  0  0  0
   11.5640   -1.0140   22.0450 C   0  0  0  0  0  0  0  0  0  0  0  0
   10.6670   -0.2910   22.8200 C   0  0  0  0  0  0  0  0  0  0  0  0
   11.1370    0.6210   23.7580 C   0  0  0  0  0  0  0  0  0  0  0  0
   10.0590    1.1990   24.4240 N   0  0  0  0  0  0  0  0  0  0  0  0
    8.8710    0.7460   23.9560 C   0  0  0  0  0  0  0  0  0  0  0  0
    7.7620    1.0940   24.3390 O   0  0  0  0  0  0  0  0  0  0  0  0
    9.1560   -0.2650   22.8230 C   0  0  2  0  0  0  0  0  0  0  0  0
    8.5730   -1.6360   23.2410 C   0  0  0  0  0  0  0  0  0  0  0  0
    8.5550    0.3120   21.4900 C   0  0  0  0  0  0  0  0  0  0  0  0
    8.9300    1.4100   21.0990 O   0  0  0  0  0  0  0  0  0  0  0  0
    7.5870   -0.4090   20.8740 N   0  0  0  0  0  0  0  0  0  0  0  0
    6.8010    0.0080   19.7820 C   0  0  0  0  0  0  0  0  0  0  0  0
    5.6680    0.8410   20.0450 C   0  0  0  0  0  0  0  0  0  0  0  0
    5.1710    1.1120   21.3480 C   0  0  0  0  0  0  0  0  0  0  0  0
    4.0910    1.9270   21.5330 C   0  0  0  0  0  0  0  0  0  0  0  0
    3.4520    2.5150   20.4490 C   0  0  0  0  0  0  0  0  0  0  0  0
    3.8890    2.2830   19.1750 C   0  0  0  0  0  0  0  0  0  0  0  0
    5.0010    1.4350   18.9360 C   0  0  0  0  0  0  0  0  0  0  0  0
    5.4830    1.1340   17.6370 C   0  0  0  0  0  0  0  0  0  0  0  0
    6.5090    0.3310   17.3900 N   0  0  0  0  0  0  0  0  0  0  0  0
    7.1390   -0.2100   18.4430 C   0  0  0  0  0  0  0  0  0  0  0  0
  2  1  1  0
  3  2  2  0
  4  3  1  0
  5  2  1  0
  6  5  2  0
  7  6  1  0
  7  4  2  0
  8  7  1  0
  9  8  1  0
 10  9  2  0
 11  9  1  0
 11  6  1  0
 11 12  1  1
 13 11  1  0
 14 13  2  0
 15 13  1  0
 16 15  1  0
 17 16  1  0
 18 17  2  0
 19 18  1  0
 20 19  2  0
 21 20  1  0
 22 21  2  0
 22 17  1  0
 23 22  1  0
 24 23  2  0
 25 24  1  0
 25 16  2  0
M  END
